@<TRIPOS>MOLECULE
UNL
   76    79     1     0     1
SMALL
USER_CHARGES
@<TRIPOS>ATOM
  1 C          -5.764676    1.887576   -0.495290 C         1 UNL        0.4977 ****
  2 H          -5.561384    1.840648   -1.572196 H         1 UNL        0.0113 ****
  3 C          -5.619411    0.477987    0.099856 C         1 UNL       -0.1679 ****
  4 H          -6.297229   -0.210636   -0.414108 H         1 UNL        0.0529 ****
  5 H          -5.951238    0.522293    1.149142 H         1 UNL        0.0529 ****
  6 C          -4.193590   -0.036882    0.027862 C         1 UNL       -0.0362 ****
  7 C          -3.101379    0.878645    0.595137 C         1 UNL        0.3339 ****
  8 C          -3.329091    2.314202    0.028309 C         1 UNL       -0.0730 ****
  9 H          -3.058743    2.308839   -1.036419 H         1 UNL        0.0112 ****
 10 H          -2.641734    3.011136    0.519798 H         1 UNL        0.0112 ****
 11 C          -4.766221    2.841646    0.160107 C         1 UNL       -0.1747 ****
 12 H          -5.033910    2.969309    1.219425 H         1 UNL        0.0393 ****
 13 H          -4.846738    3.830713   -0.304879 H         1 UNL        0.0393 ****
 14 C          -3.944055   -1.240532   -0.510728 C         1 UNL       -0.4303 ****
 15 H          -4.774326   -1.830370   -0.894721 H         1 UNL        0.1589 ****
 16 C          -2.580262   -1.856322   -0.634907 C         1 UNL        0.4743 ****
 17 H          -2.623613   -2.923972   -0.384914 H         1 UNL        0.0016 ****
 18 C          -1.532136   -1.157896    0.250275 C         1 UNL       -0.1160 ****
 19 H          -1.766603   -1.481326    1.273967 H         1 UNL       -0.0269 ****
 20 C          -1.678960    0.384606    0.151937 C         1 UNL        0.0670 ****
 21 H          -1.594638    0.623145   -0.918491 H         1 UNL       -0.0484 ****
 22 C          -0.524618    1.126718    0.869102 C         1 UNL        0.0006 ****
 23 H          -0.650693    1.055773    1.954063 H         1 UNL        0.0052 ****
 24 H          -0.574967    2.195139    0.629667 H         1 UNL        0.0052 ****
 25 C           0.883208    0.608762    0.510290 C         1 UNL       -0.1710 ****
 26 H           1.091820    0.817271   -0.548262 H         1 UNL        0.0089 ****
 27 H           1.620661    1.172171    1.094031 H         1 UNL        0.0089 ****
 28 C           1.010298   -0.907359    0.755206 C         1 UNL        0.4392 ****
 29 C          -0.099354   -1.589227   -0.096916 C         1 UNL        0.2497 ****
 30 H           0.077719   -1.252174   -1.126932 H         1 UNL       -0.0658 ****
 31 C           0.253988   -3.085722   -0.064439 C         1 UNL       -0.1426 ****
 32 H          -0.148784   -3.617639   -0.930904 H         1 UNL        0.0179 ****
 33 H          -0.161049   -3.566550    0.830637 H         1 UNL        0.0179 ****
 34 C           1.809339   -3.095867   -0.029948 C         1 UNL       -0.0022 ****
 35 H           2.174816   -3.709951    0.799246 H         1 UNL        0.0032 ****
 36 H           2.233650   -3.528981   -0.942215 H         1 UNL        0.0032 ****
 37 C           2.262335   -1.608166    0.121632 C         1 UNL       -0.0902 ****
 38 H           2.308515   -1.205272   -0.898890 H         1 UNL       -0.0177 ****
 39 C           0.864127   -1.220288    2.262235 C         1 UNL       -0.4895 ****
 40 H          -0.143431   -1.011275    2.631362 H         1 UNL        0.0945 ****
 41 H           1.077759   -2.267928    2.488966 H         1 UNL        0.0945 ****
 42 H           1.552345   -0.608757    2.853098 H         1 UNL        0.0945 ****
 43 C           3.712152   -1.467419    0.669776 C         1 UNL        0.2735 ****
 44 H           4.302445   -2.117042    0.002535 H         1 UNL       -0.0604 ****
 45 C           3.968168   -1.989268    2.098520 C         1 UNL       -0.3002 ****
 46 H           3.611256   -1.291149    2.861408 H         1 UNL        0.0611 ****
 47 H           5.045483   -2.115412    2.255529 H         1 UNL        0.0611 ****
 48 H           3.497707   -2.958587    2.286637 H         1 UNL        0.0611 ****
 49 C          -3.241961    0.900931    2.142145 C         1 UNL       -0.2007 ****
 50 H          -2.623519    1.686442    2.586409 H         1 UNL        0.0307 ****
 51 H          -4.272506    1.090074    2.451956 H         1 UNL        0.0307 ****
 52 H          -2.945627   -0.056953    2.580758 H         1 UNL        0.0307 ****
 53 O          -2.093373   -1.774260   -2.002961 O         1 UNL       -0.3128 ****
 54 O          -2.929286   -2.640104   -2.821038 O         1 UNL       -0.4339 ****
 55 H          -3.435578   -1.983145   -3.327019 H         1 UNL        0.4132 ****
 56 O          -7.111628    2.360504   -0.414762 O         1 UNL       -0.7486 ****
 57 H          -7.353401    2.450928    0.517728 H         1 UNL        0.4134 ****
 58 C           4.325375   -0.051996    0.534215 C         1 UNL       -0.1021 ****
 59 H           3.746472    0.662641    1.134785 H         1 UNL        0.0037 ****
 60 H           5.319959   -0.087910    0.997751 H         1 UNL        0.0037 ****
 61 C           4.470559    0.483932   -0.898427 C         1 UNL        0.1311 ****
 62 H           5.050366   -0.233750   -1.494876 H         1 UNL       -0.0319 ****
 63 H           3.485541    0.540215   -1.376007 H         1 UNL       -0.0319 ****
 64 C           5.109258    1.882895   -0.991622 C         1 UNL       -0.1238 ****
 65 H           4.484279    2.589209   -0.426003 H         1 UNL        0.0042 ****
 66 H           5.067966    2.215936   -2.039350 H         1 UNL        0.0042 ****
 67 C           6.566733    2.024112   -0.502551 C         1 UNL        0.4248 ****
 68 H           6.609989    1.714881    0.551447 H         1 UNL       -0.0869 ****
 69 C           7.540196    1.136985   -1.294681 C         1 UNL       -0.2951 ****
 70 H           7.516732    1.390426   -2.362639 H         1 UNL        0.0557 ****
 71 H           8.569197    1.274991   -0.943618 H         1 UNL        0.0557 ****
 72 H           7.300471    0.072945   -1.200070 H         1 UNL        0.0557 ****
 73 C           7.005503    3.496007   -0.566685 C         1 UNL       -0.2911 ****
 74 H           6.989457    3.864242   -1.600621 H         1 UNL        0.0542 ****
 75 H           8.024556    3.624830   -0.184367 H         1 UNL        0.0542 ****
 76 H           6.341686    4.137108    0.024803 H         1 UNL        0.0542 ****
@<TRIPOS>BOND
    1     1     2 1
    2     1     3 1
    3     1    11 1
    4     1    56 1
    5     3     4 1
    6     3     5 1
    7     3     6 1
    8     6     7 1
    9     6    14 1
   10     7     8 1
   11     7    20 1
   12     7    49 1
   13     8     9 1
   14     8    10 1
   15     8    11 1
   16    11    12 1
   17    11    13 1
   18    14    15 1
   19    14    16 1
   20    16    17 1
   21    16    18 1
   22    16    53 1
   23    18    19 1
   24    18    20 1
   25    18    29 1
   26    20    21 1
   27    20    22 1
   28    22    23 1
   29    22    24 1
   30    22    25 1
   31    25    26 1
   32    25    27 1
   33    25    28 1
   34    28    29 1
   35    28    37 1
   36    28    39 1
   37    29    30 1
   38    29    31 1
   39    31    32 1
   40    31    33 1
   41    31    34 1
   42    34    35 1
   43    34    36 1
   44    34    37 1
   45    37    38 1
   46    37    43 1
   47    39    40 1
   48    39    41 1
   49    39    42 1
   50    43    44 1
   51    43    45 1
   52    43    58 1
   53    45    46 1
   54    45    47 1
   55    45    48 1
   56    49    50 1
   57    49    51 1
   58    49    52 1
   59    53    54 1
   60    54    55 1
   61    56    57 1
   62    58    59 1
   63    58    60 1
   64    58    61 1
   65    61    62 1
   66    61    63 1
   67    61    64 1
   68    64    65 1
   69    64    66 1
   70    64    67 1
   71    67    68 1
   72    67    69 1
   73    67    73 1
   74    69    70 1
   75    69    71 1
   76    69    72 1
   77    73    74 1
   78    73    75 1
   79    73    76 1
@<TRIPOS>SUBSTRUCTURE
      1  UNL              1 ****               0 ****  ****  


