@<TRIPOS>MOLECULE
UNL
   76    79     1     0     1
SMALL
USER_CHARGES
@<TRIPOS>ATOM
  1 C          -6.439930   -0.409198   -0.881061 C         1 UNL        0.4977 ****
  2 H          -6.142788   -1.083171   -1.693487 H         1 UNL        0.0113 ****
  3 C          -5.790170   -0.891531    0.426197 C         1 UNL       -0.1679 ****
  4 H          -6.083092   -1.927568    0.622387 H         1 UNL        0.0529 ****
  5 H          -6.201151   -0.285072    1.248496 H         1 UNL        0.0529 ****
  6 C          -4.278949   -0.768861    0.395683 C         1 UNL       -0.0362 ****
  7 C          -3.702185    0.598607    0.012314 C         1 UNL        0.3339 ****
  8 C          -4.439426    1.088645   -1.272621 C         1 UNL       -0.0730 ****
  9 H          -4.094332    0.478473   -2.118159 H         1 UNL        0.0112 ****
 10 H          -4.140677    2.119693   -1.490068 H         1 UNL        0.0112 ****
 11 C          -5.972813    1.008731   -1.209765 C         1 UNL       -0.1747 ****
 12 H          -6.363302    1.700271   -0.448372 H         1 UNL        0.0393 ****
 13 H          -6.403616    1.321847   -2.167548 H         1 UNL        0.0393 ****
 14 C          -3.515946   -1.832711    0.689330 C         1 UNL       -0.4303 ****
 15 H          -3.989887   -2.785835    0.917049 H         1 UNL        0.1589 ****
 16 C          -2.016074   -1.831974    0.667516 C         1 UNL        0.4743 ****
 17 H          -1.618533   -2.456866    1.474782 H         1 UNL        0.0016 ****
 18 C          -1.430131   -0.408709    0.737708 C         1 UNL       -0.1160 ****
 19 H          -1.648706   -0.052774    1.755327 H         1 UNL       -0.0269 ****
 20 C          -2.168141    0.481818   -0.299704 C         1 UNL        0.0670 ****
 21 H          -2.092425   -0.065087   -1.251028 H         1 UNL       -0.0484 ****
 22 C          -1.486439    1.851971   -0.523091 C         1 UNL        0.0006 ****
 23 H          -1.697359    2.522732    0.315762 H         1 UNL        0.0052 ****
 24 H          -1.921298    2.331926   -1.407425 H         1 UNL        0.0052 ****
 25 C           0.041548    1.776561   -0.707893 C         1 UNL       -0.1710 ****
 26 H           0.276612    1.239078   -1.637609 H         1 UNL        0.0089 ****
 27 H           0.425540    2.794429   -0.829255 H         1 UNL        0.0089 ****
 28 C           0.715377    1.045607    0.468940 C         1 UNL        0.4392 ****
 29 C           0.090161   -0.379179    0.523025 C         1 UNL        0.2497 ****
 30 H           0.269918   -0.814066   -0.470429 H         1 UNL       -0.0658 ****
 31 C           0.989472   -1.141950    1.509113 C         1 UNL       -0.1426 ****
 32 H           0.948614   -2.221200    1.351439 H         1 UNL        0.0179 ****
 33 H           0.677719   -0.951895    2.544413 H         1 UNL        0.0179 ****
 34 C           2.404403   -0.559243    1.240612 C         1 UNL       -0.0022 ****
 35 H           2.881367   -0.245773    2.176958 H         1 UNL        0.0032 ****
 36 H           3.065410   -1.309175    0.795060 H         1 UNL        0.0032 ****
 37 C           2.224929    0.665898    0.284127 C         1 UNL       -0.0902 ****
 38 H           2.316037    0.305767   -0.751010 H         1 UNL       -0.0177 ****
 39 C           0.520111    1.833575    1.785215 C         1 UNL       -0.4895 ****
 40 H          -0.530371    1.904535    2.078496 H         1 UNL        0.0945 ****
 41 H           1.056592    1.374637    2.620862 H         1 UNL        0.0945 ****
 42 H           0.895021    2.857636    1.681504 H         1 UNL        0.0945 ****
 43 C           3.315822    1.745357    0.495693 C         1 UNL        0.2735 ****
 44 H           3.236253    2.091111    1.536836 H         1 UNL       -0.0604 ****
 45 C           3.153760    2.983237   -0.406859 C         1 UNL       -0.3002 ****
 46 H           3.043945    2.711344   -1.462495 H         1 UNL        0.0611 ****
 47 H           4.030743    3.636034   -0.321728 H         1 UNL        0.0611 ****
 48 H           2.279766    3.578069   -0.129733 H         1 UNL        0.0611 ****
 49 C          -3.976162    1.587039    1.179017 C         1 UNL       -0.2007 ****
 50 H          -3.756888    2.617868    0.885667 H         1 UNL        0.0307 ****
 51 H          -5.021678    1.559478    1.495339 H         1 UNL        0.0307 ****
 52 H          -3.368249    1.344568    2.056033 H         1 UNL        0.0307 ****
 53 O          -1.704154   -2.516122   -0.583226 O         1 UNL       -0.3128 ****
 54 O          -0.440018   -3.244230   -0.442348 O         1 UNL       -0.4339 ****
 55 H          -0.748941   -4.143022   -0.639939 H         1 UNL        0.4132 ****
 56 O          -7.864780   -0.521663   -0.836038 O         1 UNL       -0.7486 ****
 57 H          -8.201768    0.079206   -0.156660 H         1 UNL        0.4134 ****
 58 C           4.749631    1.162307    0.363129 C         1 UNL       -0.1021 ****
 59 H           5.457195    1.966039    0.614628 H         1 UNL        0.0037 ****
 60 H           4.892932    0.390205    1.127307 H         1 UNL        0.0037 ****
 61 C           5.131575    0.595436   -1.015022 C         1 UNL        0.1311 ****
 62 H           4.509735   -0.277294   -1.249334 H         1 UNL       -0.0319 ****
 63 H           4.906797    1.338869   -1.789997 H         1 UNL       -0.0319 ****
 64 C           6.620775    0.223092   -1.147782 C         1 UNL       -0.1238 ****
 65 H           7.221530    1.124529   -0.958115 H         1 UNL        0.0042 ****
 66 H           6.820793   -0.059343   -2.192192 H         1 UNL        0.0042 ****
 67 C           7.142427   -0.909562   -0.237885 C         1 UNL        0.4248 ****
 68 H           6.942630   -0.633534    0.807340 H         1 UNL       -0.0869 ****
 69 C           6.444657   -2.250911   -0.513873 C         1 UNL       -0.2951 ****
 70 H           6.600606   -2.563330   -1.554745 H         1 UNL        0.0557 ****
 71 H           6.844059   -3.040494    0.132882 H         1 UNL        0.0557 ****
 72 H           5.365063   -2.198901   -0.340579 H         1 UNL        0.0557 ****
 73 C           8.665065   -1.054084   -0.392072 C         1 UNL       -0.2911 ****
 74 H           8.929297   -1.331096   -1.420877 H         1 UNL        0.0542 ****
 75 H           9.061041   -1.830457    0.272610 H         1 UNL        0.0542 ****
 76 H           9.181385   -0.116090   -0.157459 H         1 UNL        0.0542 ****
@<TRIPOS>BOND
    1     1     2 1
    2     1     3 1
    3     1    11 1
    4     1    56 1
    5     3     4 1
    6     3     5 1
    7     3     6 1
    8     6     7 1
    9     6    14 1
   10     7     8 1
   11     7    20 1
   12     7    49 1
   13     8     9 1
   14     8    10 1
   15     8    11 1
   16    11    12 1
   17    11    13 1
   18    14    15 1
   19    14    16 1
   20    16    17 1
   21    16    18 1
   22    16    53 1
   23    18    19 1
   24    18    20 1
   25    18    29 1
   26    20    21 1
   27    20    22 1
   28    22    23 1
   29    22    24 1
   30    22    25 1
   31    25    26 1
   32    25    27 1
   33    25    28 1
   34    28    29 1
   35    28    37 1
   36    28    39 1
   37    29    30 1
   38    29    31 1
   39    31    32 1
   40    31    33 1
   41    31    34 1
   42    34    35 1
   43    34    36 1
   44    34    37 1
   45    37    38 1
   46    37    43 1
   47    39    40 1
   48    39    41 1
   49    39    42 1
   50    43    44 1
   51    43    45 1
   52    43    58 1
   53    45    46 1
   54    45    47 1
   55    45    48 1
   56    49    50 1
   57    49    51 1
   58    49    52 1
   59    53    54 1
   60    54    55 1
   61    56    57 1
   62    58    59 1
   63    58    60 1
   64    58    61 1
   65    61    62 1
   66    61    63 1
   67    61    64 1
   68    64    65 1
   69    64    66 1
   70    64    67 1
   71    67    68 1
   72    67    69 1
   73    67    73 1
   74    69    70 1
   75    69    71 1
   76    69    72 1
   77    73    74 1
   78    73    75 1
   79    73    76 1
@<TRIPOS>SUBSTRUCTURE
      1  UNL              1 ****               0 ****  ****  


