@<TRIPOS>MOLECULE
UNL
   76    79     1     0     1
SMALL
USER_CHARGES
@<TRIPOS>ATOM
  1 C          -6.634912   -0.535182    0.364758 C         1 UNL        0.4977 ****
  2 H          -6.567756    0.065556    1.279599 H         1 UNL        0.0113 ****
  3 C          -5.979603    0.238561   -0.788959 C         1 UNL       -0.1679 ****
  4 H          -6.465178    1.212668   -0.902704 H         1 UNL        0.0529 ****
  5 H          -6.174113   -0.321416   -1.717957 H         1 UNL        0.0529 ****
  6 C          -4.484111    0.417613   -0.601745 C         1 UNL       -0.0362 ****
  7 C          -3.667870   -0.842134   -0.285304 C         1 UNL        0.3339 ****
  8 C          -4.411989   -1.638753    0.831367 C         1 UNL       -0.0730 ****
  9 H          -4.298132   -1.089596    1.775632 H         1 UNL        0.0112 ****
 10 H          -3.920786   -2.607563    0.972813 H         1 UNL        0.0112 ****
 11 C          -5.911005   -1.863302    0.582124 C         1 UNL       -0.1747 ****
 12 H          -6.064418   -2.504323   -0.298882 H         1 UNL        0.0393 ****
 13 H          -6.357801   -2.388755    1.433831 H         1 UNL        0.0393 ****
 14 C          -3.941294    1.637388   -0.724309 C         1 UNL       -0.4303 ****
 15 H          -4.585165    2.494216   -0.916740 H         1 UNL        0.1589 ****
 16 C          -2.479622    1.944703   -0.610943 C         1 UNL        0.4743 ****
 17 H          -2.174446    2.562711   -1.468097 H         1 UNL        0.0016 ****
 18 C          -1.591240    0.684373   -0.576320 C         1 UNL       -0.1160 ****
 19 H          -1.520979    0.361045   -1.625575 H         1 UNL       -0.0269 ****
 20 C          -2.246562   -0.452347    0.251819 C         1 UNL        0.0670 ****
 21 H          -2.410529   -0.033609    1.252665 H         1 UNL       -0.0484 ****
 22 C          -1.296985   -1.661870    0.413757 C         1 UNL        0.0006 ****
 23 H          -1.213477   -2.206461   -0.532833 H         1 UNL        0.0052 ****
 24 H          -1.726534   -2.370799    1.130760 H         1 UNL        0.0052 ****
 25 C           0.122568   -1.289551    0.888459 C         1 UNL       -0.1710 ****
 26 H           0.073360   -0.876294    1.906325 H         1 UNL        0.0089 ****
 27 H           0.716395   -2.206445    0.954311 H         1 UNL        0.0089 ****
 28 C           0.780655   -0.245112   -0.036569 C         1 UNL        0.4392 ****
 29 C          -0.175205    0.982754   -0.065226 C         1 UNL        0.2497 ****
 30 H          -0.286231    1.282533    0.987855 H         1 UNL       -0.0658 ****
 31 C           0.646838    2.085677   -0.747025 C         1 UNL       -0.1426 ****
 32 H           0.289761    3.086048   -0.488560 H         1 UNL        0.0179 ****
 33 H           0.587119    1.996039   -1.839167 H         1 UNL        0.0179 ****
 34 C           2.093377    1.824132   -0.245538 C         1 UNL       -0.0022 ****
 35 H           2.800456    1.802801   -1.083329 H         1 UNL        0.0032 ****
 36 H           2.430483    2.624034    0.420437 H         1 UNL        0.0032 ****
 37 C           2.086277    0.443021    0.496123 C         1 UNL       -0.0902 ****
 38 H           1.914246    0.632993    1.567824 H         1 UNL       -0.0177 ****
 39 C           1.029446   -0.839130   -1.442486 C         1 UNL       -0.4895 ****
 40 H           0.103092   -1.132176   -1.942868 H         1 UNL        0.0945 ****
 41 H           1.542135   -0.131857   -2.101268 H         1 UNL        0.0945 ****
 42 H           1.656406   -1.734519   -1.376864 H         1 UNL        0.0945 ****
 43 C           3.446711   -0.295071    0.387468 C         1 UNL        0.2735 ****
 44 H           3.660687   -0.434810   -0.681452 H         1 UNL       -0.0604 ****
 45 C           3.445094   -1.680238    1.056120 C         1 UNL       -0.3002 ****
 46 H           3.161155   -1.606660    2.113643 H         1 UNL        0.0611 ****
 47 H           4.435755   -2.142718    1.012324 H         1 UNL        0.0611 ****
 48 H           2.751267   -2.370627    0.571877 H         1 UNL        0.0611 ****
 49 C          -3.581951   -1.706265   -1.572500 C         1 UNL       -0.2007 ****
 50 H          -3.169587   -2.697425   -1.360333 H         1 UNL        0.0307 ****
 51 H          -4.566432   -1.857213   -2.022628 H         1 UNL        0.0307 ****
 52 H          -2.952598   -1.228871   -2.330127 H         1 UNL        0.0307 ****
 53 O          -2.237064    2.916651    0.435195 O         1 UNL       -0.3128 ****
 54 O          -2.720392    2.377506    1.713787 O         1 UNL       -0.4339 ****
 55 H          -1.991366    2.668201    2.284826 H         1 UNL        0.4132 ****
 56 O          -8.040371   -0.703556    0.157934 O         1 UNL       -0.7486 ****
 57 H          -8.173851   -1.245057   -0.632706 H         1 UNL        0.4134 ****
 58 C           4.570525    0.590521    0.984899 C         1 UNL       -0.1021 ****
 59 H           4.525930    1.585539    0.527029 H         1 UNL        0.0037 ****
 60 H           4.355384    0.738293    2.053909 H         1 UNL        0.0037 ****
 61 C           6.018007    0.077858    0.844405 C         1 UNL        0.1311 ****
 62 H           6.666884    0.791307    1.367940 H         1 UNL       -0.0319 ****
 63 H           6.135615   -0.874534    1.374353 H         1 UNL       -0.0319 ****
 64 C           6.492431   -0.068592   -0.610858 C         1 UNL       -0.1238 ****
 65 H           6.290933    0.873630   -1.141704 H         1 UNL        0.0042 ****
 66 H           5.888289   -0.834633   -1.115152 H         1 UNL        0.0042 ****
 67 C           7.983456   -0.429535   -0.813321 C         1 UNL        0.4248 ****
 68 H           8.128899   -0.506926   -1.901047 H         1 UNL       -0.0869 ****
 69 C           8.936305    0.667609   -0.310186 C         1 UNL       -0.2951 ****
 70 H           8.903121    0.765824    0.780925 H         1 UNL        0.0557 ****
 71 H           9.972313    0.438430   -0.584756 H         1 UNL        0.0557 ****
 72 H           8.684684    1.643435   -0.742048 H         1 UNL        0.0557 ****
 73 C           8.348520   -1.796648   -0.211132 C         1 UNL       -0.2911 ****
 74 H           8.288648   -1.785121    0.883284 H         1 UNL        0.0542 ****
 75 H           9.372901   -2.079612   -0.479001 H         1 UNL        0.0542 ****
 76 H           7.678910   -2.584967   -0.574958 H         1 UNL        0.0542 ****
@<TRIPOS>BOND
    1     1     2 1
    2     1     3 1
    3     1    11 1
    4     1    56 1
    5     3     4 1
    6     3     5 1
    7     3     6 1
    8     6     7 1
    9     6    14 1
   10     7     8 1
   11     7    20 1
   12     7    49 1
   13     8     9 1
   14     8    10 1
   15     8    11 1
   16    11    12 1
   17    11    13 1
   18    14    15 1
   19    14    16 1
   20    16    17 1
   21    16    18 1
   22    16    53 1
   23    18    19 1
   24    18    20 1
   25    18    29 1
   26    20    21 1
   27    20    22 1
   28    22    23 1
   29    22    24 1
   30    22    25 1
   31    25    26 1
   32    25    27 1
   33    25    28 1
   34    28    29 1
   35    28    37 1
   36    28    39 1
   37    29    30 1
   38    29    31 1
   39    31    32 1
   40    31    33 1
   41    31    34 1
   42    34    35 1
   43    34    36 1
   44    34    37 1
   45    37    38 1
   46    37    43 1
   47    39    40 1
   48    39    41 1
   49    39    42 1
   50    43    44 1
   51    43    45 1
   52    43    58 1
   53    45    46 1
   54    45    47 1
   55    45    48 1
   56    49    50 1
   57    49    51 1
   58    49    52 1
   59    53    54 1
   60    54    55 1
   61    56    57 1
   62    58    59 1
   63    58    60 1
   64    58    61 1
   65    61    62 1
   66    61    63 1
   67    61    64 1
   68    64    65 1
   69    64    66 1
   70    64    67 1
   71    67    68 1
   72    67    69 1
   73    67    73 1
   74    69    70 1
   75    69    71 1
   76    69    72 1
   77    73    74 1
   78    73    75 1
   79    73    76 1
@<TRIPOS>SUBSTRUCTURE
      1  UNL              1 ****               0 ****  ****  


