@<TRIPOS>MOLECULE
UNL
   76    79     1     0     1
SMALL
USER_CHARGES
@<TRIPOS>ATOM
  1 C          -5.754679    1.961337   -0.465167 C         1 UNL        0.4977 ****
  2 H          -5.697972    1.687044   -1.525725 H         1 UNL        0.0113 ****
  3 C          -5.579334    0.693777    0.386108 C         1 UNL       -0.1679 ****
  4 H          -6.342369   -0.041846    0.113292 H         1 UNL        0.0529 ****
  5 H          -5.766755    0.967585    1.436317 H         1 UNL        0.0529 ****
  6 C          -4.193978    0.089982    0.246324 C         1 UNL       -0.0362 ****
  7 C          -3.005585    1.032907    0.473398 C         1 UNL        0.3339 ****
  8 C          -3.258019    2.337122   -0.344900 C         1 UNL       -0.0730 ****
  9 H          -3.131452    2.102537   -1.410597 H         1 UNL        0.0112 ****
 10 H          -2.488519    3.075812   -0.095956 H         1 UNL        0.0112 ****
 11 C          -4.646394    2.965597   -0.149183 C         1 UNL       -0.1747 ****
 12 H          -4.766812    3.319110    0.885557 H         1 UNL        0.0393 ****
 13 H          -4.754568    3.844261   -0.795097 H         1 UNL        0.0393 ****
 14 C          -4.059482   -1.209819   -0.059540 C         1 UNL       -0.4303 ****
 15 H          -4.953076   -1.813292   -0.207869 H         1 UNL        0.1589 ****
 16 C          -2.746001   -1.918820   -0.222592 C         1 UNL        0.4743 ****
 17 H          -2.791634   -2.910952    0.244161 H         1 UNL        0.0016 ****
 18 C          -1.566329   -1.122534    0.364008 C         1 UNL       -0.1160 ****
 19 H          -1.673026   -1.220658    1.453333 H         1 UNL       -0.0269 ****
 20 C          -1.672195    0.375468   -0.030311 C         1 UNL        0.0670 ****
 21 H          -1.722459    0.390423   -1.128953 H         1 UNL       -0.0484 ****
 22 C          -0.408097    1.174252    0.371906 C         1 UNL        0.0006 ****
 23 H          -0.392164    1.328627    1.455481 H         1 UNL        0.0052 ****
 24 H          -0.453209    2.174682   -0.073646 H         1 UNL        0.0052 ****
 25 C           0.921969    0.511715   -0.041638 C         1 UNL       -0.1710 ****
 26 H           0.999667    0.492790   -1.137858 H         1 UNL        0.0089 ****
 27 H           1.748945    1.133155    0.320944 H         1 UNL        0.0089 ****
 28 C           1.026890   -0.930509    0.490599 C         1 UNL        0.4392 ****
 29 C          -0.208038   -1.699720   -0.061263 C         1 UNL        0.2497 ****
 30 H          -0.157458   -1.584736   -1.152215 H         1 UNL       -0.0658 ****
 31 C           0.095488   -3.178577    0.232314 C         1 UNL       -0.1426 ****
 32 H          -0.435974   -3.846524   -0.451278 H         1 UNL        0.0179 ****
 33 H          -0.213460   -3.447168    1.250655 H         1 UNL        0.0179 ****
 34 C           1.640627   -3.274160    0.076653 C         1 UNL       -0.0022 ****
 35 H           2.091891   -3.733373    0.962029 H         1 UNL        0.0032 ****
 36 H           1.925899   -3.902991   -0.773629 H         1 UNL        0.0032 ****
 37 C           2.159390   -1.816323   -0.132908 C         1 UNL       -0.0902 ****
 38 H           2.092739   -1.618928   -1.213471 H         1 UNL       -0.0177 ****
 39 C           1.074048   -0.929589    2.035949 C         1 UNL       -0.4895 ****
 40 H           0.136406   -0.581603    2.477365 H         1 UNL        0.0945 ****
 41 H           1.271311   -1.924300    2.443976 H         1 UNL        0.0945 ****
 42 H           1.862726   -0.263335    2.397828 H         1 UNL        0.0945 ****
 43 C           3.673324   -1.645926    0.186741 C         1 UNL        0.2735 ****
 44 H           4.150201   -2.431921   -0.422063 H         1 UNL       -0.0604 ****
 45 C           4.114604   -1.909076    1.640635 C         1 UNL       -0.3002 ****
 46 H           3.888056   -1.063702    2.297535 H         1 UNL        0.0611 ****
 47 H           5.195721   -2.074474    1.685206 H         1 UNL        0.0611 ****
 48 H           3.639343   -2.798033    2.065214 H         1 UNL        0.0611 ****
 49 C          -2.938592    1.373034    1.987738 C         1 UNL       -0.2007 ****
 50 H          -2.238917    2.191552    2.180900 H         1 UNL        0.0307 ****
 51 H          -3.911378    1.684247    2.375746 H         1 UNL        0.0307 ****
 52 H          -2.621169    0.505780    2.574965 H         1 UNL        0.0307 ****
 53 O          -2.443180   -2.139496   -1.627946 O         1 UNL       -0.3128 ****
 54 O          -3.411089   -3.096332   -2.142787 O         1 UNL       -0.4339 ****
 55 H          -3.958231   -2.521576   -2.703389 H         1 UNL        0.4132 ****
 56 O          -7.062241    2.521230   -0.319157 O         1 UNL       -0.7486 ****
 57 H          -7.174442    2.812761    0.596587 H         1 UNL        0.4134 ****
 58 C           4.238068   -0.303333   -0.331205 C         1 UNL       -0.1021 ****
 59 H           3.811474   -0.099568   -1.323657 H         1 UNL        0.0037 ****
 60 H           3.894959    0.509501    0.321192 H         1 UNL        0.0037 ****
 61 C           5.771130   -0.258329   -0.446536 C         1 UNL        0.1311 ****
 62 H           6.228061   -0.324666    0.548088 H         1 UNL       -0.0319 ****
 63 H           6.107413   -1.152291   -0.990971 H         1 UNL       -0.0319 ****
 64 C           6.315044    0.978827   -1.184346 C         1 UNL       -0.1238 ****
 65 H           5.904954    0.984346   -2.204681 H         1 UNL        0.0042 ****
 66 H           7.404204    0.870942   -1.296110 H         1 UNL        0.0042 ****
 67 C           6.031788    2.352359   -0.539473 C         1 UNL        0.4248 ****
 68 H           4.942697    2.469377   -0.443914 H         1 UNL       -0.0869 ****
 69 C           6.644960    2.479616    0.864118 C         1 UNL       -0.2951 ****
 70 H           7.734084    2.346675    0.826673 H         1 UNL        0.0557 ****
 71 H           6.446463    3.469981    1.289588 H         1 UNL        0.0557 ****
 72 H           6.242945    1.735950    1.559830 H         1 UNL        0.0557 ****
 73 C           6.536931    3.481095   -1.452478 C         1 UNL       -0.2911 ****
 74 H           7.624989    3.420267   -1.583946 H         1 UNL        0.0542 ****
 75 H           6.308206    4.466846   -1.031416 H         1 UNL        0.0542 ****
 76 H           6.078541    3.426225   -2.446607 H         1 UNL        0.0542 ****
@<TRIPOS>BOND
    1     1     2 1
    2     1     3 1
    3     1    11 1
    4     1    56 1
    5     3     4 1
    6     3     5 1
    7     3     6 1
    8     6     7 1
    9     6    14 1
   10     7     8 1
   11     7    20 1
   12     7    49 1
   13     8     9 1
   14     8    10 1
   15     8    11 1
   16    11    12 1
   17    11    13 1
   18    14    15 1
   19    14    16 1
   20    16    17 1
   21    16    18 1
   22    16    53 1
   23    18    19 1
   24    18    20 1
   25    18    29 1
   26    20    21 1
   27    20    22 1
   28    22    23 1
   29    22    24 1
   30    22    25 1
   31    25    26 1
   32    25    27 1
   33    25    28 1
   34    28    29 1
   35    28    37 1
   36    28    39 1
   37    29    30 1
   38    29    31 1
   39    31    32 1
   40    31    33 1
   41    31    34 1
   42    34    35 1
   43    34    36 1
   44    34    37 1
   45    37    38 1
   46    37    43 1
   47    39    40 1
   48    39    41 1
   49    39    42 1
   50    43    44 1
   51    43    45 1
   52    43    58 1
   53    45    46 1
   54    45    47 1
   55    45    48 1
   56    49    50 1
   57    49    51 1
   58    49    52 1
   59    53    54 1
   60    54    55 1
   61    56    57 1
   62    58    59 1
   63    58    60 1
   64    58    61 1
   65    61    62 1
   66    61    63 1
   67    61    64 1
   68    64    65 1
   69    64    66 1
   70    64    67 1
   71    67    68 1
   72    67    69 1
   73    67    73 1
   74    69    70 1
   75    69    71 1
   76    69    72 1
   77    73    74 1
   78    73    75 1
   79    73    76 1
@<TRIPOS>SUBSTRUCTURE
      1  UNL              1 ****               0 ****  ****  


