@<TRIPOS>MOLECULE
UNL
   76    79     1     0     1
SMALL
USER_CHARGES
@<TRIPOS>ATOM
  1 C          -6.200430    0.464541    1.293109 C         1 UNL        0.4977 ****
  2 H          -5.823035    1.306825    1.885854 H         1 UNL        0.0113 ****
  3 C          -5.752764    0.643699   -0.166297 C         1 UNL       -0.1679 ****
  4 H          -6.112256    1.604888   -0.546668 H         1 UNL        0.0529 ****
  5 H          -6.246734   -0.137087   -0.765814 H         1 UNL        0.0529 ****
  6 C          -4.246742    0.545782   -0.325984 C         1 UNL       -0.0362 ****
  7 C          -3.569842   -0.693366    0.273174 C         1 UNL        0.3339 ****
  8 C          -4.106938   -0.884637    1.725342 C         1 UNL       -0.0730 ****
  9 H          -3.679365   -0.092904    2.355483 H         1 UNL        0.0112 ****
 10 H          -3.737051   -1.834444    2.126449 H         1 UNL        0.0112 ****
 11 C          -5.636806   -0.837992    1.861138 C         1 UNL       -0.1747 ****
 12 H          -6.096399   -1.687563    1.334678 H         1 UNL        0.0393 ****
 13 H          -5.922656   -0.930753    2.915007 H         1 UNL        0.0393 ****
 14 C          -3.578590    1.516012   -0.968837 C         1 UNL       -0.4303 ****
 15 H          -4.131397    2.366113   -1.364368 H         1 UNL        0.1589 ****
 16 C          -2.093658    1.530051   -1.190006 C         1 UNL        0.4743 ****
 17 H          -1.866055    1.875124   -2.206544 H         1 UNL        0.0016 ****
 18 C          -1.445339    0.154494   -0.951106 C         1 UNL       -0.1160 ****
 19 H          -1.731783   -0.450239   -1.823142 H         1 UNL       -0.0269 ****
 20 C          -2.013556   -0.498880    0.336719 C         1 UNL        0.0670 ****
 21 H          -1.830889    0.226349    1.143253 H         1 UNL       -0.0484 ****
 22 C          -1.250988   -1.791783    0.712726 C         1 UNL        0.0006 ****
 23 H          -1.526404   -2.599975    0.027637 H         1 UNL        0.0052 ****
 24 H          -1.564732   -2.123327    1.709311 H         1 UNL        0.0052 ****
 25 C           0.285376   -1.653598    0.703528 C         1 UNL       -0.1710 ****
 26 H           0.598385   -0.960576    1.497431 H         1 UNL        0.0089 ****
 27 H           0.720074   -2.627597    0.950267 H         1 UNL        0.0089 ****
 28 C           0.802873   -1.120693   -0.648217 C         1 UNL        0.4392 ****
 29 C           0.087121    0.238494   -0.884354 C         1 UNL        0.2497 ****
 30 H           0.322770    0.845123    0.000798 H         1 UNL       -0.0658 ****
 31 C           0.843294    0.877834   -2.057712 C         1 UNL       -0.1426 ****
 32 H           0.751212    1.967459   -2.056560 H         1 UNL        0.0179 ****
 33 H           0.450002    0.522447   -3.018819 H         1 UNL        0.0179 ****
 34 C           2.308955    0.404898   -1.848797 C         1 UNL       -0.0022 ****
 35 H           2.703836   -0.051689   -2.764121 H         1 UNL        0.0032 ****
 36 H           2.971124    1.244002   -1.613806 H         1 UNL        0.0032 ****
 37 C           2.295301   -0.639868   -0.684214 C         1 UNL       -0.0902 ****
 38 H           2.454194   -0.097846    0.259516 H         1 UNL       -0.0177 ****
 39 C           0.540711   -2.142417   -1.777678 C         1 UNL       -0.4895 ****
 40 H          -0.524100   -2.342082   -1.923062 H         1 UNL        0.0945 ****
 41 H           0.937964   -1.800921   -2.738304 H         1 UNL        0.0945 ****
 42 H           1.018631   -3.101226   -1.549710 H         1 UNL        0.0945 ****
 43 C           3.431117   -1.684932   -0.812702 C         1 UNL        0.2735 ****
 44 H           3.276125   -2.222680   -1.759584 H         1 UNL       -0.0604 ****
 45 C           3.438319   -2.736771    0.312806 C         1 UNL       -0.3002 ****
 46 H           3.419807   -2.273864    1.305815 H         1 UNL        0.0611 ****
 47 H           4.341501   -3.355607    0.252366 H         1 UNL        0.0611 ****
 48 H           2.579869   -3.410369    0.249071 H         1 UNL        0.0611 ****
 49 C          -3.957626   -1.923725   -0.592381 C         1 UNL       -0.2007 ****
 50 H          -3.671910   -2.859884   -0.103722 H         1 UNL        0.0307 ****
 51 H          -5.034729   -1.970088   -0.769680 H         1 UNL        0.0307 ****
 52 H          -3.472310   -1.887181   -1.572647 H         1 UNL        0.0307 ****
 53 O          -1.440594    2.461860   -0.284107 O         1 UNL       -0.3128 ****
 54 O          -1.848544    3.805828   -0.664957 O         1 UNL       -0.4339 ****
 55 H          -2.435073    4.036876    0.074317 H         1 UNL        0.4132 ****
 56 O          -7.621301    0.553312    1.426248 O         1 UNL       -0.7486 ****
 57 H          -8.024631   -0.182245    0.944123 H         1 UNL        0.4134 ****
 58 C           4.828205   -1.020081   -0.939149 C         1 UNL       -0.1021 ****
 59 H           5.560498   -1.820493   -1.118305 H         1 UNL        0.0037 ****
 60 H           4.851481   -0.390598   -1.837471 H         1 UNL        0.0037 ****
 61 C           5.305484   -0.183400    0.259841 C         1 UNL        0.1311 ****
 62 H           4.607158    0.644337    0.433477 H         1 UNL       -0.0319 ****
 63 H           5.289828   -0.797893    1.168073 H         1 UNL       -0.0319 ****
 64 C           6.721124    0.375495    0.040509 C         1 UNL       -0.1238 ****
 65 H           6.725868    0.965903   -0.887304 H         1 UNL        0.0042 ****
 66 H           7.407023   -0.466242   -0.134139 H         1 UNL        0.0042 ****
 67 C           7.305068    1.250225    1.174336 C         1 UNL        0.4248 ****
 68 H           8.310965    1.544418    0.839681 H         1 UNL       -0.0869 ****
 69 C           6.506868    2.546016    1.394781 C         1 UNL       -0.2951 ****
 70 H           5.505164    2.342418    1.790478 H         1 UNL        0.0557 ****
 71 H           7.014765    3.199170    2.113610 H         1 UNL        0.0557 ****
 72 H           6.389344    3.106376    0.459791 H         1 UNL        0.0557 ****
 73 C           7.476683    0.476411    2.492054 C         1 UNL       -0.2911 ****
 74 H           6.509428    0.200963    2.927956 H         1 UNL        0.0542 ****
 75 H           8.007915    1.083318    3.234166 H         1 UNL        0.0542 ****
 76 H           8.050766   -0.445590    2.341908 H         1 UNL        0.0542 ****
@<TRIPOS>BOND
    1     1     2 1
    2     1     3 1
    3     1    11 1
    4     1    56 1
    5     3     4 1
    6     3     5 1
    7     3     6 1
    8     6     7 1
    9     6    14 1
   10     7     8 1
   11     7    20 1
   12     7    49 1
   13     8     9 1
   14     8    10 1
   15     8    11 1
   16    11    12 1
   17    11    13 1
   18    14    15 1
   19    14    16 1
   20    16    17 1
   21    16    18 1
   22    16    53 1
   23    18    19 1
   24    18    20 1
   25    18    29 1
   26    20    21 1
   27    20    22 1
   28    22    23 1
   29    22    24 1
   30    22    25 1
   31    25    26 1
   32    25    27 1
   33    25    28 1
   34    28    29 1
   35    28    37 1
   36    28    39 1
   37    29    30 1
   38    29    31 1
   39    31    32 1
   40    31    33 1
   41    31    34 1
   42    34    35 1
   43    34    36 1
   44    34    37 1
   45    37    38 1
   46    37    43 1
   47    39    40 1
   48    39    41 1
   49    39    42 1
   50    43    44 1
   51    43    45 1
   52    43    58 1
   53    45    46 1
   54    45    47 1
   55    45    48 1
   56    49    50 1
   57    49    51 1
   58    49    52 1
   59    53    54 1
   60    54    55 1
   61    56    57 1
   62    58    59 1
   63    58    60 1
   64    58    61 1
   65    61    62 1
   66    61    63 1
   67    61    64 1
   68    64    65 1
   69    64    66 1
   70    64    67 1
   71    67    68 1
   72    67    69 1
   73    67    73 1
   74    69    70 1
   75    69    71 1
   76    69    72 1
   77    73    74 1
   78    73    75 1
   79    73    76 1
@<TRIPOS>SUBSTRUCTURE
      1  UNL              1 ****               0 ****  ****  


