@<TRIPOS>MOLECULE
UNL
   76    79     1     0     1
SMALL
USER_CHARGES
@<TRIPOS>ATOM
  1 C           6.250066   -1.370535   -0.744211 C         1 UNL        0.4977 ****
  2 H           6.094257   -1.061539   -1.785116 H         1 UNL        0.0113 ****
  3 C           5.917795   -0.188404    0.180133 C         1 UNL       -0.1679 ****
  4 H           6.536760    0.673706   -0.087173 H         1 UNL        0.0529 ****
  5 H           6.202197   -0.474910    1.204888 H         1 UNL        0.0529 ****
  6 C           4.447825    0.186269    0.135216 C         1 UNL       -0.0362 ****
  7 C           3.440776   -0.947729    0.364602 C         1 UNL        0.3339 ****
  8 C           3.856418   -2.154442   -0.532719 C         1 UNL       -0.0730 ****
  9 H           3.637695   -1.895287   -1.577582 H         1 UNL        0.0112 ****
 10 H           3.230104   -3.019559   -0.289661 H         1 UNL        0.0112 ****
 11 C           5.336225   -2.555787   -0.433053 C         1 UNL       -0.1747 ****
 12 H           5.566282   -2.931425    0.574981 H         1 UNL        0.0393 ****
 13 H           5.550307   -3.374743   -1.129075 H         1 UNL        0.0393 ****
 14 C           4.089388    1.459118   -0.093881 C         1 UNL       -0.4303 ****
 15 H           4.864768    2.206917   -0.249792 H         1 UNL        0.1589 ****
 16 C           2.672069    1.950508   -0.158765 C         1 UNL        0.4743 ****
 17 H           2.581998    2.913675    0.359360 H         1 UNL        0.0016 ****
 18 C           1.668459    0.945443    0.435065 C         1 UNL       -0.1160 ****
 19 H           1.814022    1.009422    1.522464 H         1 UNL       -0.0269 ****
 20 C           1.994158   -0.495230   -0.043255 C         1 UNL        0.0670 ****
 21 H           1.988240   -0.451524   -1.142298 H         1 UNL       -0.0484 ****
 22 C           0.898232   -1.507309    0.371486 C         1 UNL        0.0006 ****
 23 H           0.964521   -1.711275    1.444947 H         1 UNL        0.0052 ****
 24 H           1.080283   -2.465706   -0.128297 H         1 UNL        0.0052 ****
 25 C          -0.541353   -1.053525    0.053458 C         1 UNL       -0.1710 ****
 26 H          -0.678840   -0.998465   -1.035651 H         1 UNL        0.0089 ****
 27 H          -1.236089   -1.818431    0.418953 H         1 UNL        0.0089 ****
 28 C          -0.850386    0.326828    0.665030 C         1 UNL        0.4392 ****
 29 C           0.214747    1.311157    0.100827 C         1 UNL        0.2497 ****
 30 H           0.126910    1.238038   -0.991401 H         1 UNL       -0.0658 ****
 31 C          -0.306682    2.706142    0.484043 C         1 UNL       -0.1426 ****
 32 H           0.076679    3.481942   -0.184596 H         1 UNL        0.0179 ****
 33 H           0.004822    2.974687    1.501638 H         1 UNL        0.0179 ****
 34 C          -1.852491    2.555957    0.397233 C         1 UNL       -0.0022 ****
 35 H          -2.328016    2.899083    1.321667 H         1 UNL        0.0032 ****
 36 H          -2.275584    3.164883   -0.409018 H         1 UNL        0.0032 ****
 37 C          -2.141747    1.043178    0.138707 C         1 UNL       -0.0902 ****
 38 H          -2.102311    0.904240   -0.952221 H         1 UNL       -0.0177 ****
 39 C          -0.818132    0.248919    2.208629 C         1 UNL       -0.4895 ****
 40 H           0.184091    0.037741    2.590940 H         1 UNL        0.0945 ****
 41 H          -1.150617    1.179351    2.676290 H         1 UNL        0.0945 ****
 42 H          -1.471391   -0.551627    2.568211 H         1 UNL        0.0945 ****
 43 C          -3.591798    0.620307    0.518110 C         1 UNL        0.2735 ****
 44 H          -4.210189    1.350334   -0.025900 H         1 UNL       -0.0604 ****
 45 C          -3.992170    0.745934    2.001337 C         1 UNL       -0.3002 ****
 46 H          -3.603637   -0.080682    2.604076 H         1 UNL        0.0611 ****
 47 H          -5.082216    0.735675    2.102985 H         1 UNL        0.0611 ****
 48 H          -3.640779    1.679975    2.449144 H         1 UNL        0.0611 ****
 49 C           3.509739   -1.362477    1.860131 C         1 UNL       -0.2007 ****
 50 H           2.961981   -2.292082    2.040762 H         1 UNL        0.0307 ****
 51 H           4.539126   -1.527997    2.186817 H         1 UNL        0.0307 ****
 52 H           3.088774   -0.586055    2.506406 H         1 UNL        0.0307 ****
 53 O           2.263996    2.184876   -1.535022 O         1 UNL       -0.3128 ****
 54 O           3.034678    3.312431   -2.037373 O         1 UNL       -0.4339 ****
 55 H           3.635710    2.864263   -2.655306 H         1 UNL        0.4132 ****
 56 O           7.636629   -1.715023   -0.686433 O         1 UNL       -0.7486 ****
 57 H           7.842252   -2.025080    0.206734 H         1 UNL        0.4134 ****
 58 C          -3.955144   -0.776784   -0.036593 C         1 UNL       -0.1021 ****
 59 H          -3.574821   -0.858764   -1.064564 H         1 UNL        0.0037 ****
 60 H          -3.422943   -1.539011    0.546796 H         1 UNL        0.0037 ****
 61 C          -5.453495   -1.143228   -0.045209 C         1 UNL        0.1311 ****
 62 H          -5.533604   -2.186420   -0.376011 H         1 UNL       -0.0319 ****
 63 H          -5.846275   -1.123087    0.978619 H         1 UNL       -0.0319 ****
 64 C          -6.315592   -0.254575   -0.957053 C         1 UNL       -0.1238 ****
 65 H          -5.855933   -0.228196   -1.956157 H         1 UNL        0.0042 ****
 66 H          -6.294046    0.779132   -0.587129 H         1 UNL        0.0042 ****
 67 C          -7.797784   -0.669971   -1.116307 C         1 UNL        0.4248 ****
 68 H          -8.250658    0.081403   -1.780069 H         1 UNL       -0.0869 ****
 69 C          -7.963866   -2.035010   -1.804770 C         1 UNL       -0.2951 ****
 70 H          -7.594242   -2.854349   -1.177541 H         1 UNL        0.0557 ****
 71 H          -9.020065   -2.237807   -2.015941 H         1 UNL        0.0557 ****
 72 H          -7.420471   -2.070434   -2.756362 H         1 UNL        0.0557 ****
 73 C          -8.571386   -0.623357    0.211885 C         1 UNL       -0.2911 ****
 74 H          -8.219107   -1.389831    0.911819 H         1 UNL        0.0542 ****
 75 H          -9.640612   -0.798575    0.046728 H         1 UNL        0.0542 ****
 76 H          -8.464998    0.351742    0.701798 H         1 UNL        0.0542 ****
@<TRIPOS>BOND
    1     1     2 1
    2     1     3 1
    3     1    11 1
    4     1    56 1
    5     3     4 1
    6     3     5 1
    7     3     6 1
    8     6     7 1
    9     6    14 1
   10     7     8 1
   11     7    20 1
   12     7    49 1
   13     8     9 1
   14     8    10 1
   15     8    11 1
   16    11    12 1
   17    11    13 1
   18    14    15 1
   19    14    16 1
   20    16    17 1
   21    16    18 1
   22    16    53 1
   23    18    19 1
   24    18    20 1
   25    18    29 1
   26    20    21 1
   27    20    22 1
   28    22    23 1
   29    22    24 1
   30    22    25 1
   31    25    26 1
   32    25    27 1
   33    25    28 1
   34    28    29 1
   35    28    37 1
   36    28    39 1
   37    29    30 1
   38    29    31 1
   39    31    32 1
   40    31    33 1
   41    31    34 1
   42    34    35 1
   43    34    36 1
   44    34    37 1
   45    37    38 1
   46    37    43 1
   47    39    40 1
   48    39    41 1
   49    39    42 1
   50    43    44 1
   51    43    45 1
   52    43    58 1
   53    45    46 1
   54    45    47 1
   55    45    48 1
   56    49    50 1
   57    49    51 1
   58    49    52 1
   59    53    54 1
   60    54    55 1
   61    56    57 1
   62    58    59 1
   63    58    60 1
   64    58    61 1
   65    61    62 1
   66    61    63 1
   67    61    64 1
   68    64    65 1
   69    64    66 1
   70    64    67 1
   71    67    68 1
   72    67    69 1
   73    67    73 1
   74    69    70 1
   75    69    71 1
   76    69    72 1
   77    73    74 1
   78    73    75 1
   79    73    76 1
@<TRIPOS>SUBSTRUCTURE
      1  UNL              1 ****               0 ****  ****  


