@<TRIPOS>MOLECULE
UNL
   76    79     1     0     1
SMALL
USER_CHARGES
@<TRIPOS>ATOM
  1 C           6.617547    0.004439   -0.611868 C         1 UNL        0.4977 ****
  2 H           6.425973    0.586323   -1.521786 H         1 UNL        0.0113 ****
  3 C           5.909582    0.684169    0.570957 C         1 UNL       -0.1679 ****
  4 H           6.259325    1.716892    0.665632 H         1 UNL        0.0529 ****
  5 H           6.217645    0.161470    1.490162 H         1 UNL        0.0529 ****
  6 C           4.398237    0.651374    0.437059 C         1 UNL       -0.0362 ****
  7 C           3.760127   -0.717638    0.170240 C         1 UNL        0.3339 ****
  8 C           4.553691   -1.406512   -0.982839 C         1 UNL       -0.0730 ****
  9 H           4.317810   -0.884579   -1.920226 H         1 UNL        0.0112 ****
 10 H           4.198638   -2.435795   -1.102672 H         1 UNL        0.0112 ****
 11 C           6.079686   -1.413590   -0.803707 C         1 UNL       -0.1747 ****
 12 H           6.362678   -2.025545    0.065533 H         1 UNL        0.0393 ****
 13 H           6.557738   -1.870463   -1.677597 H         1 UNL        0.0393 ****
 14 C           3.691829    1.786315    0.555458 C         1 UNL       -0.4303 ****
 15 H           4.218779    2.720094    0.742762 H         1 UNL        0.1589 ****
 16 C           2.197372    1.879551    0.443809 C         1 UNL        0.4743 ****
 17 H           1.803082    2.559152    1.209924 H         1 UNL        0.0016 ****
 18 C           1.507237    0.508298    0.559813 C         1 UNL       -0.1160 ****
 19 H           1.572881    0.245805    1.625073 H         1 UNL       -0.0269 ****
 20 C           2.265162   -0.554166   -0.279049 C         1 UNL        0.0670 ****
 21 H           2.297629   -0.156119   -1.303882 H         1 UNL       -0.0484 ****
 22 C           1.495855   -1.895116   -0.341268 C         1 UNL        0.0006 ****
 23 H           1.570750   -2.413654    0.620004 H         1 UNL        0.0052 ****
 24 H           1.971767   -2.554921   -1.075905 H         1 UNL        0.0052 ****
 25 C           0.002169   -1.759052   -0.700909 C         1 UNL       -0.1710 ****
 26 H          -0.097119   -1.384027   -1.729528 H         1 UNL        0.0089 ****
 27 H          -0.446367   -2.757344   -0.688739 H         1 UNL        0.0089 ****
 28 C          -0.728995   -0.787856    0.249113 C         1 UNL        0.4392 ****
 29 C           0.027078    0.566703    0.152147 C         1 UNL        0.2497 ****
 30 H           0.011600    0.830245   -0.914399 H         1 UNL       -0.0658 ****
 31 C          -0.891677    1.572693    0.857582 C         1 UNL       -0.1426 ****
 32 H          -0.710548    2.597845    0.522812 H         1 UNL        0.0179 ****
 33 H          -0.732290    1.555035    1.943320 H         1 UNL        0.0179 ****
 34 C          -2.317958    1.075450    0.495392 C         1 UNL       -0.0022 ****
 35 H          -2.944676    0.994162    1.391674 H         1 UNL        0.0032 ****
 36 H          -2.821109    1.782795   -0.170152 H         1 UNL        0.0032 ****
 37 C          -2.162801   -0.325589   -0.190850 C         1 UNL       -0.0902 ****
 38 H          -2.109457   -0.165472   -1.279414 H         1 UNL       -0.0177 ****
 39 C          -0.767301   -1.348399    1.689440 C         1 UNL       -0.4895 ****
 40 H           0.231312   -1.483834    2.113032 H         1 UNL        0.0945 ****
 41 H          -1.318347   -0.690752    2.368500 H         1 UNL        0.0945 ****
 42 H          -1.260608   -2.325677    1.712336 H         1 UNL        0.0945 ****
 43 C          -3.378713   -1.253685    0.064997 C         1 UNL        0.2735 ****
 44 H          -3.489133   -1.368737    1.154198 H         1 UNL       -0.0604 ****
 45 C          -3.209414   -2.655465   -0.548367 C         1 UNL       -0.3002 ****
 46 H          -2.974268   -2.587333   -1.617864 H         1 UNL        0.0611 ****
 47 H          -4.125321   -3.245874   -0.449042 H         1 UNL        0.0611 ****
 48 H          -2.411024   -3.225056   -0.067173 H         1 UNL        0.0611 ****
 49 C           3.878308   -1.568428    1.464707 C         1 UNL       -0.2007 ****
 50 H           3.622356   -2.615430    1.277361 H         1 UNL        0.0307 ****
 51 H           4.893996   -1.553486    1.867080 H         1 UNL        0.0307 ****
 52 H           3.216535   -1.189322    2.249588 H         1 UNL        0.0307 ****
 53 O           1.804095    2.436072   -0.841070 O         1 UNL       -0.3128 ****
 54 O           2.233519    3.826142   -0.869878 O         1 UNL       -0.4339 ****
 55 H           2.968662    3.778772   -1.503350 H         1 UNL        0.4132 ****
 56 O           8.039803    0.038628   -0.468848 O         1 UNL       -0.7486 ****
 57 H           8.286061   -0.482472    0.308308 H         1 UNL        0.4134 ****
 58 C          -4.681696   -0.596903   -0.459775 C         1 UNL       -0.1021 ****
 59 H          -4.680428    0.466135   -0.200886 H         1 UNL        0.0037 ****
 60 H          -4.679476   -0.641574   -1.560083 H         1 UNL        0.0037 ****
 61 C          -5.980986   -1.223646    0.072500 C         1 UNL        0.1311 ****
 62 H          -5.984881   -2.302150   -0.126404 H         1 UNL       -0.0319 ****
 63 H          -6.005186   -1.122889    1.166181 H         1 UNL       -0.0319 ****
 64 C          -7.267427   -0.636770   -0.538354 C         1 UNL       -0.1238 ****
 65 H          -8.126918   -1.212100   -0.163136 H         1 UNL        0.0042 ****
 66 H          -7.243724   -0.803648   -1.625037 H         1 UNL        0.0042 ****
 67 C          -7.544824    0.860063   -0.282226 C         1 UNL        0.4248 ****
 68 H          -6.698160    1.440807   -0.675179 H         1 UNL       -0.0869 ****
 69 C          -8.800849    1.304016   -1.049178 C         1 UNL       -0.2951 ****
 70 H          -9.686953    0.760541   -0.696464 H         1 UNL        0.0557 ****
 71 H          -8.992491    2.374632   -0.914010 H         1 UNL        0.0557 ****
 72 H          -8.700534    1.114244   -2.124063 H         1 UNL        0.0557 ****
 73 C          -7.684986    1.183164    1.213755 C         1 UNL       -0.2911 ****
 74 H          -8.506904    0.608627    1.660685 H         1 UNL        0.0542 ****
 75 H          -7.902621    2.246487    1.365683 H         1 UNL        0.0542 ****
 76 H          -6.773503    0.950947    1.774039 H         1 UNL        0.0542 ****
@<TRIPOS>BOND
    1     1     2 1
    2     1     3 1
    3     1    11 1
    4     1    56 1
    5     3     4 1
    6     3     5 1
    7     3     6 1
    8     6     7 1
    9     6    14 1
   10     7     8 1
   11     7    20 1
   12     7    49 1
   13     8     9 1
   14     8    10 1
   15     8    11 1
   16    11    12 1
   17    11    13 1
   18    14    15 1
   19    14    16 1
   20    16    17 1
   21    16    18 1
   22    16    53 1
   23    18    19 1
   24    18    20 1
   25    18    29 1
   26    20    21 1
   27    20    22 1
   28    22    23 1
   29    22    24 1
   30    22    25 1
   31    25    26 1
   32    25    27 1
   33    25    28 1
   34    28    29 1
   35    28    37 1
   36    28    39 1
   37    29    30 1
   38    29    31 1
   39    31    32 1
   40    31    33 1
   41    31    34 1
   42    34    35 1
   43    34    36 1
   44    34    37 1
   45    37    38 1
   46    37    43 1
   47    39    40 1
   48    39    41 1
   49    39    42 1
   50    43    44 1
   51    43    45 1
   52    43    58 1
   53    45    46 1
   54    45    47 1
   55    45    48 1
   56    49    50 1
   57    49    51 1
   58    49    52 1
   59    53    54 1
   60    54    55 1
   61    56    57 1
   62    58    59 1
   63    58    60 1
   64    58    61 1
   65    61    62 1
   66    61    63 1
   67    61    64 1
   68    64    65 1
   69    64    66 1
   70    64    67 1
   71    67    68 1
   72    67    69 1
   73    67    73 1
   74    69    70 1
   75    69    71 1
   76    69    72 1
   77    73    74 1
   78    73    75 1
   79    73    76 1
@<TRIPOS>SUBSTRUCTURE
      1  UNL              1 ****               0 ****  ****  


