@<TRIPOS>MOLECULE
UNL
   76    79     1     0     1
SMALL
USER_CHARGES
@<TRIPOS>ATOM
  1 C           6.639866   -0.594135   -0.254409 C         1 UNL        0.4977 ****
  2 H           6.629267    0.076108   -1.122686 H         1 UNL        0.0113 ****
  3 C           5.923729    0.097773    0.916402 C         1 UNL       -0.1679 ****
  4 H           6.409717    1.054393    1.132047 H         1 UNL        0.0529 ****
  5 H           6.057958   -0.532232    1.809832 H         1 UNL        0.0529 ****
  6 C           4.445032    0.308755    0.647684 C         1 UNL       -0.0362 ****
  7 C           3.643053   -0.921624    0.205193 C         1 UNL        0.3339 ****
  8 C           4.438964   -1.637067   -0.929865 C         1 UNL       -0.0730 ****
  9 H           4.377978   -1.016524   -1.834259 H         1 UNL        0.0112 ****
 10 H           3.950348   -2.587129   -1.171662 H         1 UNL        0.0112 ****
 11 C           5.921449   -1.893577   -0.617986 C         1 UNL       -0.1747 ****
 12 H           6.022357   -2.604718    0.215207 H         1 UNL        0.0393 ****
 13 H           6.412740   -2.352824   -1.483251 H         1 UNL        0.0393 ****
 14 C           3.904399    1.527037    0.804337 C         1 UNL       -0.4303 ****
 15 H           4.541145    2.351697    1.119344 H         1 UNL        0.1589 ****
 16 C           2.458373    1.857787    0.571636 C         1 UNL        0.4743 ****
 17 H           2.093134    2.529669    1.358629 H         1 UNL        0.0016 ****
 18 C           1.566903    0.604589    0.502926 C         1 UNL       -0.1160 ****
 19 H           1.486585    0.255321    1.542051 H         1 UNL       -0.0269 ****
 20 C           2.241298   -0.495809   -0.358010 C         1 UNL        0.0670 ****
 21 H           2.435246   -0.031385   -1.336017 H         1 UNL       -0.0484 ****
 22 C           1.293361   -1.692751   -0.608395 C         1 UNL        0.0006 ****
 23 H           1.194228   -2.288068    0.304997 H         1 UNL        0.0052 ****
 24 H           1.738396   -2.360617   -1.355025 H         1 UNL        0.0052 ****
 25 C          -0.120400   -1.299909   -1.084092 C         1 UNL       -0.1710 ****
 26 H          -0.059719   -0.836601   -2.079151 H         1 UNL        0.0089 ****
 27 H          -0.708677   -2.215247   -1.202369 H         1 UNL        0.0089 ****
 28 C          -0.793431   -0.302938   -0.117739 C         1 UNL        0.4392 ****
 29 C           0.159854    0.921686   -0.026175 C         1 UNL        0.2497 ****
 30 H           0.290521    1.263062   -1.062279 H         1 UNL       -0.0658 ****
 31 C          -0.666341    2.002948    0.682271 C         1 UNL       -0.1426 ****
 32 H          -0.304862    3.009491    0.454227 H         1 UNL        0.0179 ****
 33 H          -0.618118    1.882090    1.772114 H         1 UNL        0.0179 ****
 34 C          -2.107947    1.758798    0.158349 C         1 UNL       -0.0022 ****
 35 H          -2.821445    1.701548    0.989161 H         1 UNL        0.0032 ****
 36 H          -2.441169    2.583763   -0.477955 H         1 UNL        0.0032 ****
 37 C          -2.091523    0.408963   -0.638307 C         1 UNL       -0.0902 ****
 38 H          -1.904340    0.643474   -1.698238 H         1 UNL       -0.0177 ****
 39 C          -1.058296   -0.959044    1.256553 C         1 UNL       -0.4895 ****
 40 H          -0.137876   -1.276722    1.753374 H         1 UNL        0.0945 ****
 41 H          -1.574963   -0.278852    1.940408 H         1 UNL        0.0945 ****
 42 H          -1.687132   -1.848800    1.146390 H         1 UNL        0.0945 ****
 43 C          -3.453329   -0.332040   -0.579134 C         1 UNL        0.2735 ****
 44 H          -3.681164   -0.518777    0.479795 H         1 UNL       -0.0604 ****
 45 C          -3.442790   -1.686555   -1.307883 C         1 UNL       -0.3002 ****
 46 H          -3.150977   -1.565996   -2.358945 H         1 UNL        0.0611 ****
 47 H          -4.432270   -2.153553   -1.292025 H         1 UNL        0.0611 ****
 48 H          -2.750496   -2.395596   -0.848878 H         1 UNL        0.0611 ****
 49 C           3.504409   -1.874014    1.424600 C         1 UNL       -0.2007 ****
 50 H           3.117564   -2.852097    1.123642 H         1 UNL        0.0307 ****
 51 H           4.465747   -2.046182    1.914445 H         1 UNL        0.0307 ****
 52 H           2.830131   -1.456443    2.178764 H         1 UNL        0.0307 ****
 53 O           2.281354    2.564732   -0.686997 O         1 UNL       -0.3128 ****
 54 O           2.906731    3.871614   -0.550191 O         1 UNL       -0.4339 ****
 55 H           3.686339    3.763410   -1.119776 H         1 UNL        0.4132 ****
 56 O           8.029844   -0.791435    0.016842 O         1 UNL       -0.7486 ****
 57 H           8.116808   -1.400110    0.763912 H         1 UNL        0.4134 ****
 58 C          -4.568261    0.581041   -1.151358 C         1 UNL       -0.1021 ****
 59 H          -4.538377    1.548827   -0.637503 H         1 UNL        0.0037 ****
 60 H          -4.329688    0.790162   -2.204925 H         1 UNL        0.0037 ****
 61 C          -6.016317    0.057866   -1.075177 C         1 UNL        0.1311 ****
 62 H          -6.654639    0.798575   -1.572477 H         1 UNL       -0.0319 ****
 63 H          -6.123477   -0.865220   -1.660100 H         1 UNL       -0.0319 ****
 64 C          -6.532558   -0.185993    0.351027 C         1 UNL       -0.1238 ****
 65 H          -6.419024    0.736448    0.941810 H         1 UNL        0.0042 ****
 66 H          -5.899814   -0.938193    0.840275 H         1 UNL        0.0042 ****
 67 C          -7.998215   -0.659949    0.445929 C         1 UNL        0.4248 ****
 68 H          -8.105293   -1.540710   -0.206271 H         1 UNL       -0.0869 ****
 69 C          -8.331054   -1.098179    1.881203 C         1 UNL       -0.2951 ****
 70 H          -8.233063   -0.256485    2.578907 H         1 UNL        0.0557 ****
 71 H          -9.358615   -1.472095    1.955673 H         1 UNL        0.0557 ****
 72 H          -7.658648   -1.893472    2.222912 H         1 UNL        0.0557 ****
 73 C          -8.997950    0.405346   -0.033142 C         1 UNL       -0.2911 ****
 74 H          -8.916891    1.314849    0.576409 H         1 UNL        0.0542 ****
 75 H         -10.028041    0.040759    0.051458 H         1 UNL        0.0542 ****
 76 H          -8.834534    0.687684   -1.077846 H         1 UNL        0.0542 ****
@<TRIPOS>BOND
    1     1     2 1
    2     1     3 1
    3     1    11 1
    4     1    56 1
    5     3     4 1
    6     3     5 1
    7     3     6 1
    8     6     7 1
    9     6    14 1
   10     7     8 1
   11     7    20 1
   12     7    49 1
   13     8     9 1
   14     8    10 1
   15     8    11 1
   16    11    12 1
   17    11    13 1
   18    14    15 1
   19    14    16 1
   20    16    17 1
   21    16    18 1
   22    16    53 1
   23    18    19 1
   24    18    20 1
   25    18    29 1
   26    20    21 1
   27    20    22 1
   28    22    23 1
   29    22    24 1
   30    22    25 1
   31    25    26 1
   32    25    27 1
   33    25    28 1
   34    28    29 1
   35    28    37 1
   36    28    39 1
   37    29    30 1
   38    29    31 1
   39    31    32 1
   40    31    33 1
   41    31    34 1
   42    34    35 1
   43    34    36 1
   44    34    37 1
   45    37    38 1
   46    37    43 1
   47    39    40 1
   48    39    41 1
   49    39    42 1
   50    43    44 1
   51    43    45 1
   52    43    58 1
   53    45    46 1
   54    45    47 1
   55    45    48 1
   56    49    50 1
   57    49    51 1
   58    49    52 1
   59    53    54 1
   60    54    55 1
   61    56    57 1
   62    58    59 1
   63    58    60 1
   64    58    61 1
   65    61    62 1
   66    61    63 1
   67    61    64 1
   68    64    65 1
   69    64    66 1
   70    64    67 1
   71    67    68 1
   72    67    69 1
   73    67    73 1
   74    69    70 1
   75    69    71 1
   76    69    72 1
   77    73    74 1
   78    73    75 1
   79    73    76 1
@<TRIPOS>SUBSTRUCTURE
      1  UNL              1 ****               0 ****  ****  


