@<TRIPOS>MOLECULE
UNL
   76    79     1     0     1
SMALL
USER_CHARGES
@<TRIPOS>ATOM
  1 C           6.629155   -0.173709   -0.879589 C         1 UNL        0.4977 ****
  2 H           6.422199    0.435798   -1.767429 H         1 UNL        0.0113 ****
  3 C           6.037170    0.528760    0.353267 C         1 UNL       -0.1679 ****
  4 H           6.455322    1.536473    0.438915 H         1 UNL        0.0529 ****
  5 H           6.365136   -0.027234    1.245572 H         1 UNL        0.0529 ****
  6 C           4.522595    0.589601    0.307298 C         1 UNL       -0.0362 ****
  7 C           3.782902   -0.731257    0.067306 C         1 UNL        0.3339 ****
  8 C           4.460574   -1.449602   -1.140749 C         1 UNL       -0.0730 ****
  9 H           4.198337   -0.900909   -2.055342 H         1 UNL        0.0112 ****
 10 H           4.037470   -2.454134   -1.248012 H         1 UNL        0.0112 ****
 11 C           5.991656   -1.551633   -1.057622 C         1 UNL       -0.1747 ****
 12 H           6.289365   -2.195613   -0.216741 H         1 UNL        0.0393 ****
 13 H           6.385488   -2.021065   -1.966203 H         1 UNL        0.0393 ****
 14 C           3.895597    1.765149    0.465942 C         1 UNL       -0.4303 ****
 15 H           4.482692    2.672624    0.595327 H         1 UNL        0.1589 ****
 16 C           2.407305    1.945885    0.415437 C         1 UNL        0.4743 ****
 17 H           2.086195    2.701441    1.140809 H         1 UNL        0.0016 ****
 18 C           1.648773    0.622165    0.631219 C         1 UNL       -0.1160 ****
 19 H           1.814808    0.358781    1.686238 H         1 UNL       -0.0269 ****
 20 C           2.277058   -0.463152   -0.285515 C         1 UNL        0.0670 ****
 21 H           2.275025   -0.022554   -1.293366 H         1 UNL       -0.0484 ****
 22 C           1.431100   -1.754822   -0.366867 C         1 UNL        0.0006 ****
 23 H           1.549165   -2.344847    0.547547 H         1 UNL        0.0052 ****
 24 H           1.809084   -2.384177   -1.180833 H         1 UNL        0.0052 ****
 25 C          -0.073473   -1.512167   -0.593639 C         1 UNL       -0.1710 ****
 26 H          -0.230694   -1.056197   -1.581517 H         1 UNL        0.0089 ****
 27 H          -0.579626   -2.482145   -0.613552 H         1 UNL        0.0089 ****
 28 C          -0.662018   -0.576665    0.480297 C         1 UNL        0.4392 ****
 29 C           0.137775    0.756224    0.390269 C         1 UNL        0.2497 ****
 30 H           0.019547    1.097399   -0.648094 H         1 UNL       -0.0658 ****
 31 C          -0.664660    1.727882    1.268591 C         1 UNL       -0.1426 ****
 32 H          -0.476235    2.770919    1.008013 H         1 UNL        0.0179 ****
 33 H          -0.399358    1.602636    2.326422 H         1 UNL        0.0179 ****
 34 C          -2.139220    1.314971    1.012111 C         1 UNL       -0.0022 ****
 35 H          -2.684479    1.196223    1.956379 H         1 UNL        0.0032 ****
 36 H          -2.668144    2.086591    0.444914 H         1 UNL        0.0032 ****
 37 C          -2.112609   -0.038877    0.222401 C         1 UNL       -0.0902 ****
 38 H          -2.163629    0.194081   -0.852920 H         1 UNL       -0.0177 ****
 39 C          -0.578272   -1.227463    1.881204 C         1 UNL       -0.4895 ****
 40 H           0.452402   -1.390571    2.206478 H         1 UNL        0.0945 ****
 41 H          -1.063402   -0.614130    2.646170 H         1 UNL        0.0945 ****
 42 H          -1.075330   -2.203377    1.885037 H         1 UNL        0.0945 ****
 43 C          -3.336202   -0.936673    0.543809 C         1 UNL        0.2735 ****
 44 H          -3.344018   -1.117829    1.629726 H         1 UNL       -0.0604 ****
 45 C          -3.296807   -2.302908   -0.163518 C         1 UNL       -0.3002 ****
 46 H          -3.205736   -2.179659   -1.250168 H         1 UNL        0.0611 ****
 47 H          -4.209131   -2.875046    0.029913 H         1 UNL        0.0611 ****
 48 H          -2.459468   -2.918021    0.173105 H         1 UNL        0.0611 ****
 49 C           3.925831   -1.608154    1.341612 C         1 UNL       -0.2007 ****
 50 H           3.582153   -2.630721    1.160149 H         1 UNL        0.0307 ****
 51 H           4.964935   -1.673497    1.673183 H         1 UNL        0.0307 ****
 52 H           3.347783   -1.195938    2.174357 H         1 UNL        0.0307 ****
 53 O           2.189168    2.518546   -0.909053 O         1 UNL       -0.3128 ****
 54 O           1.026179    3.409686   -0.872995 O         1 UNL       -0.4339 ****
 55 H           1.446848    4.235173   -1.162694 H         1 UNL        0.4132 ****
 56 O           8.056697   -0.232378   -0.819948 O         1 UNL       -0.7486 ****
 57 H           8.312976   -0.789708   -0.071707 H         1 UNL        0.4134 ****
 58 C          -4.649572   -0.190896    0.197551 C         1 UNL       -0.1021 ****
 59 H          -4.612872    0.820772    0.618341 H         1 UNL        0.0037 ****
 60 H          -4.697975   -0.064409   -0.893742 H         1 UNL        0.0037 ****
 61 C          -5.936407   -0.861514    0.707978 C         1 UNL        0.1311 ****
 62 H          -6.096731   -1.822183    0.205332 H         1 UNL       -0.0319 ****
 63 H          -5.807846   -1.098953    1.773671 H         1 UNL       -0.0319 ****
 64 C          -7.199066    0.008530    0.565071 C         1 UNL       -0.1238 ****
 65 H          -7.051137    0.935829    1.137373 H         1 UNL        0.0042 ****
 66 H          -8.041250   -0.512424    1.044528 H         1 UNL        0.0042 ****
 67 C          -7.621960    0.385708   -0.870859 C         1 UNL        0.4248 ****
 68 H          -6.787727    0.921865   -1.345475 H         1 UNL       -0.0869 ****
 69 C          -7.940692   -0.847066   -1.731627 C         1 UNL       -0.2951 ****
 70 H          -8.755064   -1.433223   -1.285951 H         1 UNL        0.0557 ****
 71 H          -8.257968   -0.550213   -2.737799 H         1 UNL        0.0557 ****
 72 H          -7.075564   -1.508899   -1.841680 H         1 UNL        0.0557 ****
 73 C          -8.823707    1.343461   -0.835320 C         1 UNL       -0.2911 ****
 74 H          -9.694839    0.860980   -0.373446 H         1 UNL        0.0542 ****
 75 H          -9.113990    1.656193   -1.844885 H         1 UNL        0.0542 ****
 76 H          -8.598024    2.246396   -0.256319 H         1 UNL        0.0542 ****
@<TRIPOS>BOND
    1     1     2 1
    2     1     3 1
    3     1    11 1
    4     1    56 1
    5     3     4 1
    6     3     5 1
    7     3     6 1
    8     6     7 1
    9     6    14 1
   10     7     8 1
   11     7    20 1
   12     7    49 1
   13     8     9 1
   14     8    10 1
   15     8    11 1
   16    11    12 1
   17    11    13 1
   18    14    15 1
   19    14    16 1
   20    16    17 1
   21    16    18 1
   22    16    53 1
   23    18    19 1
   24    18    20 1
   25    18    29 1
   26    20    21 1
   27    20    22 1
   28    22    23 1
   29    22    24 1
   30    22    25 1
   31    25    26 1
   32    25    27 1
   33    25    28 1
   34    28    29 1
   35    28    37 1
   36    28    39 1
   37    29    30 1
   38    29    31 1
   39    31    32 1
   40    31    33 1
   41    31    34 1
   42    34    35 1
   43    34    36 1
   44    34    37 1
   45    37    38 1
   46    37    43 1
   47    39    40 1
   48    39    41 1
   49    39    42 1
   50    43    44 1
   51    43    45 1
   52    43    58 1
   53    45    46 1
   54    45    47 1
   55    45    48 1
   56    49    50 1
   57    49    51 1
   58    49    52 1
   59    53    54 1
   60    54    55 1
   61    56    57 1
   62    58    59 1
   63    58    60 1
   64    58    61 1
   65    61    62 1
   66    61    63 1
   67    61    64 1
   68    64    65 1
   69    64    66 1
   70    64    67 1
   71    67    68 1
   72    67    69 1
   73    67    73 1
   74    69    70 1
   75    69    71 1
   76    69    72 1
   77    73    74 1
   78    73    75 1
   79    73    76 1
@<TRIPOS>SUBSTRUCTURE
      1  UNL              1 ****               0 ****  ****  


