@<TRIPOS>MOLECULE
UNL
   76    79     1     0     1
SMALL
USER_CHARGES
@<TRIPOS>ATOM
  1 C           6.529624   -0.312743   -0.100203 C         1 UNL        0.4977 ****
  2 H           6.496934    0.219302   -1.058911 H         1 UNL        0.0113 ****
  3 C           5.730267    0.487949    0.939996 C         1 UNL       -0.1679 ****
  4 H           6.139706    1.499722    1.020380 H         1 UNL        0.0529 ****
  5 H           5.881464    0.008046    1.919772 H         1 UNL        0.0529 ****
  6 C           4.249357    0.545136    0.613063 C         1 UNL       -0.0362 ****
  7 C           3.551104   -0.793513    0.342589 C         1 UNL        0.3339 ****
  8 C           4.431277   -1.607564   -0.655675 C         1 UNL       -0.0730 ****
  9 H           4.354100   -1.134881   -1.644295 H         1 UNL        0.0112 ****
 10 H           4.019870   -2.617224   -0.761341 H         1 UNL        0.0112 ****
 11 C           5.917957   -1.702197   -0.279244 C         1 UNL       -0.1747 ****
 12 H           6.043816   -2.272614    0.652927 H         1 UNL        0.0393 ****
 13 H           6.467517   -2.245918   -1.055972 H         1 UNL        0.0393 ****
 14 C           3.618686    1.729165    0.575666 C         1 UNL       -0.4303 ****
 15 H           4.184998    2.636542    0.777369 H         1 UNL        0.1589 ****
 16 C           2.160965    1.913019    0.266422 C         1 UNL        0.4743 ****
 17 H           1.724168    2.663600    0.937274 H         1 UNL        0.0016 ****
 18 C           1.363211    0.600078    0.365379 C         1 UNL       -0.1160 ****
 19 H           1.273727    0.401983    1.442818 H         1 UNL       -0.0269 ****
 20 C           2.141630   -0.560959   -0.307655 C         1 UNL        0.0670 ****
 21 H           2.333938   -0.231488   -1.339283 H         1 UNL       -0.0484 ****
 22 C           1.289634   -1.849262   -0.398274 C         1 UNL        0.0006 ****
 23 H           1.203541   -2.310331    0.590914 H         1 UNL        0.0052 ****
 24 H           1.804810   -2.583825   -1.027962 H         1 UNL        0.0052 ****
 25 C          -0.132308   -1.637255   -0.957326 C         1 UNL       -0.1710 ****
 26 H          -0.072280   -1.321105   -2.008472 H         1 UNL        0.0089 ****
 27 H          -0.650018   -2.601485   -0.951485 H         1 UNL        0.0089 ****
 28 C          -0.905266   -0.562861   -0.164272 C         1 UNL        0.4392 ****
 29 C          -0.044735    0.729970   -0.235435 C         1 UNL        0.2497 ****
 30 H           0.094881    0.924443   -1.307711 H         1 UNL       -0.0658 ****
 31 C          -0.967962    1.838572    0.286297 C         1 UNL       -0.1426 ****
 32 H          -0.671401    2.824972   -0.080924 H         1 UNL        0.0179 ****
 33 H          -0.946959    1.882847    1.382774 H         1 UNL        0.0179 ****
 34 C          -2.370787    1.412954   -0.226910 C         1 UNL       -0.0022 ****
 35 H          -3.104987    1.426392    0.587561 H         1 UNL        0.0032 ****
 36 H          -2.739917    2.107977   -0.986615 H         1 UNL        0.0032 ****
 37 C          -2.233547   -0.034749   -0.812143 C         1 UNL       -0.0902 ****
 38 H          -2.030201    0.054412   -1.891096 H         1 UNL       -0.0177 ****
 39 C          -1.166778   -1.028158    1.286331 C         1 UNL       -0.4895 ****
 40 H          -0.242646   -1.200995    1.844008 H         1 UNL        0.0945 ****
 41 H          -1.750856   -0.294850    1.850608 H         1 UNL        0.0945 ****
 42 H          -1.728221   -1.968280    1.296446 H         1 UNL        0.0945 ****
 43 C          -3.540375   -0.859454   -0.671320 C         1 UNL        0.2735 ****
 44 H          -3.788103   -0.905568    0.398895 H         1 UNL       -0.0604 ****
 45 C          -3.408962   -2.302075   -1.189002 C         1 UNL       -0.3002 ****
 46 H          -3.090756   -2.315575   -2.239210 H         1 UNL        0.0611 ****
 47 H          -4.362482   -2.834990   -1.126398 H         1 UNL        0.0611 ****
 48 H          -2.683895   -2.881643   -0.613588 H         1 UNL        0.0611 ****
 49 C           3.441024   -1.563412    1.687340 C         1 UNL       -0.2007 ****
 50 H           3.132318   -2.600797    1.527825 H         1 UNL        0.0307 ****
 51 H           4.396376   -1.590874    2.216780 H         1 UNL        0.0307 ****
 52 H           2.716474   -1.089740    2.356943 H         1 UNL        0.0307 ****
 53 O           1.974250    2.412935   -1.086571 O         1 UNL       -0.3128 ****
 54 O           2.500964    3.768742   -1.132181 O         1 UNL       -0.4339 ****
 55 H           3.303736    3.636849   -1.663312 H         1 UNL        0.4132 ****
 56 O           7.921339   -0.361980    0.224141 O         1 UNL       -0.7486 ****
 57 H           8.029308   -0.845123    1.055453 H         1 UNL        0.4134 ****
 58 C          -4.700435   -0.128735   -1.395245 C         1 UNL       -0.1021 ****
 59 H          -4.745622    0.907736   -1.044987 H         1 UNL        0.0037 ****
 60 H          -4.452685   -0.070700   -2.465691 H         1 UNL        0.0037 ****
 61 C          -6.105913   -0.749135   -1.261930 C         1 UNL        0.1311 ****
 62 H          -6.800059   -0.134209   -1.848909 H         1 UNL       -0.0319 ****
 63 H          -6.124876   -1.736726   -1.738861 H         1 UNL       -0.0319 ****
 64 C          -6.646058   -0.899419    0.173007 C         1 UNL       -0.1238 ****
 65 H          -6.007282   -1.599226    0.728877 H         1 UNL        0.0042 ****
 66 H          -7.635262   -1.378066    0.120218 H         1 UNL        0.0042 ****
 67 C          -6.782355    0.396513    1.000241 C         1 UNL        0.4248 ****
 68 H          -5.792533    0.871269    1.062608 H         1 UNL       -0.0869 ****
 69 C          -7.747279    1.405467    0.357244 C         1 UNL       -0.2951 ****
 70 H          -8.749545    0.970597    0.249240 H         1 UNL        0.0557 ****
 71 H          -7.841184    2.305546    0.975414 H         1 UNL        0.0557 ****
 72 H          -7.412939    1.722341   -0.635854 H         1 UNL        0.0557 ****
 73 C          -7.225409    0.066546    2.434762 C         1 UNL       -0.2911 ****
 74 H          -8.215271   -0.407771    2.438760 H         1 UNL        0.0542 ****
 75 H          -7.288413    0.971018    3.050567 H         1 UNL        0.0542 ****
 76 H          -6.525117   -0.622429    2.921107 H         1 UNL        0.0542 ****
@<TRIPOS>BOND
    1     1     2 1
    2     1     3 1
    3     1    11 1
    4     1    56 1
    5     3     4 1
    6     3     5 1
    7     3     6 1
    8     6     7 1
    9     6    14 1
   10     7     8 1
   11     7    20 1
   12     7    49 1
   13     8     9 1
   14     8    10 1
   15     8    11 1
   16    11    12 1
   17    11    13 1
   18    14    15 1
   19    14    16 1
   20    16    17 1
   21    16    18 1
   22    16    53 1
   23    18    19 1
   24    18    20 1
   25    18    29 1
   26    20    21 1
   27    20    22 1
   28    22    23 1
   29    22    24 1
   30    22    25 1
   31    25    26 1
   32    25    27 1
   33    25    28 1
   34    28    29 1
   35    28    37 1
   36    28    39 1
   37    29    30 1
   38    29    31 1
   39    31    32 1
   40    31    33 1
   41    31    34 1
   42    34    35 1
   43    34    36 1
   44    34    37 1
   45    37    38 1
   46    37    43 1
   47    39    40 1
   48    39    41 1
   49    39    42 1
   50    43    44 1
   51    43    45 1
   52    43    58 1
   53    45    46 1
   54    45    47 1
   55    45    48 1
   56    49    50 1
   57    49    51 1
   58    49    52 1
   59    53    54 1
   60    54    55 1
   61    56    57 1
   62    58    59 1
   63    58    60 1
   64    58    61 1
   65    61    62 1
   66    61    63 1
   67    61    64 1
   68    64    65 1
   69    64    66 1
   70    64    67 1
   71    67    68 1
   72    67    69 1
   73    67    73 1
   74    69    70 1
   75    69    71 1
   76    69    72 1
   77    73    74 1
   78    73    75 1
   79    73    76 1
@<TRIPOS>SUBSTRUCTURE
      1  UNL              1 ****               0 ****  ****  


