@<TRIPOS>MOLECULE
UNL
   76    79     1     0     1
SMALL
USER_CHARGES
@<TRIPOS>ATOM
  1 C           6.060333   -1.754382   -0.642791 C         1 UNL        0.4977 ****
  2 H           5.945978   -1.469148   -1.695781 H         1 UNL        0.0113 ****
  3 C           5.833461   -0.513855    0.235703 C         1 UNL       -0.1679 ****
  4 H           6.535158    0.275096   -0.052351 H         1 UNL        0.0529 ****
  5 H           6.078140   -0.789711    1.273534 H         1 UNL        0.0529 ****
  6 C           4.406775   -0.002236    0.157417 C         1 UNL       -0.0362 ****
  7 C           3.292979   -1.025857    0.411743 C         1 UNL        0.3339 ****
  8 C           3.600206   -2.297775   -0.437917 C         1 UNL       -0.0730 ****
  9 H           3.418410   -2.056196   -1.494020 H         1 UNL        0.0112 ****
 10 H           2.891174   -3.089832   -0.174012 H         1 UNL        0.0112 ****
 11 C           5.033541   -2.834926   -0.303934 C         1 UNL       -0.1747 ****
 12 H           5.215881   -3.194987    0.719424 H         1 UNL        0.0393 ****
 13 H           5.175281   -3.694736   -0.968469 H         1 UNL        0.0393 ****
 14 C           4.174785    1.290092   -0.120418 C         1 UNL       -0.4303 ****
 15 H           5.020039    1.954199   -0.291354 H         1 UNL        0.1589 ****
 16 C           2.812015    1.912202   -0.221564 C         1 UNL        0.4743 ****
 17 H           2.809757    2.897506    0.261622 H         1 UNL        0.0016 ****
 18 C           1.710604    1.029740    0.393301 C         1 UNL       -0.1160 ****
 19 H           1.851259    1.118039    1.479596 H         1 UNL       -0.0269 ****
 20 C           1.900672   -0.451617   -0.030910 C         1 UNL        0.0670 ****
 21 H           1.910235   -0.446621   -1.130771 H         1 UNL       -0.0484 ****
 22 C           0.708617   -1.339274    0.403296 C         1 UNL        0.0006 ****
 23 H           0.743394   -1.509988    1.484012 H         1 UNL        0.0052 ****
 24 H           0.803491   -2.327918   -0.060390 H         1 UNL        0.0052 ****
 25 C          -0.676741   -0.761436    0.048987 C         1 UNL       -0.1710 ****
 26 H          -0.795162   -0.731121   -1.043323 H         1 UNL        0.0089 ****
 27 H          -1.446950   -1.442314    0.429199 H         1 UNL        0.0089 ****
 28 C          -0.857669    0.662372    0.609670 C         1 UNL        0.4392 ****
 29 C           0.301985    1.521220    0.027678 C         1 UNL        0.2497 ****
 30 H           0.218849    1.419881   -1.062626 H         1 UNL       -0.0658 ****
 31 C          -0.088720    2.971607    0.358132 C         1 UNL       -0.1426 ****
 32 H           0.371456    3.684389   -0.331873 H         1 UNL        0.0179 ****
 33 H           0.238655    3.244803    1.369476 H         1 UNL        0.0179 ****
 34 C          -1.641558    2.965214    0.259216 C         1 UNL       -0.0022 ****
 35 H          -2.089622    3.379628    1.168011 H         1 UNL        0.0032 ****
 36 H          -1.999058    3.586329   -0.569171 H         1 UNL        0.0032 ****
 37 C          -2.069038    1.479098    0.042734 C         1 UNL       -0.0902 ****
 38 H          -2.029404    1.302968   -1.042801 H         1 UNL       -0.0177 ****
 39 C          -0.847903    0.635188    2.155528 C         1 UNL       -0.4895 ****
 40 H           0.127507    0.348417    2.557318 H         1 UNL        0.0945 ****
 41 H          -1.099798    1.607225    2.587413 H         1 UNL        0.0945 ****
 42 H          -1.573764   -0.090791    2.533647 H         1 UNL        0.0945 ****
 43 C          -3.555095    1.200139    0.413715 C         1 UNL        0.2735 ****
 44 H          -4.106840    1.958036   -0.166731 H         1 UNL       -0.0604 ****
 45 C          -3.959301    1.415680    1.886190 C         1 UNL       -0.3002 ****
 46 H          -3.651854    0.580187    2.522533 H         1 UNL        0.0611 ****
 47 H          -5.046665    1.506462    1.972681 H         1 UNL        0.0611 ****
 48 H          -3.530179    2.330155    2.305725 H         1 UNL        0.0611 ****
 49 C           3.306253   -1.392231    1.921330 C         1 UNL       -0.2007 ****
 50 H           2.669442   -2.257897    2.126058 H         1 UNL        0.0307 ****
 51 H           4.311457   -1.644357    2.267340 H         1 UNL        0.0307 ****
 52 H           2.955552   -0.556645    2.534946 H         1 UNL        0.0307 ****
 53 O           2.442177    2.135093   -1.610422 O         1 UNL       -0.3128 ****
 54 O           3.323263    3.164357   -2.141461 O         1 UNL       -0.4339 ****
 55 H           3.883920    2.638417   -2.735603 H         1 UNL        0.4132 ****
 56 O           7.406648   -2.227786   -0.553891 O         1 UNL       -0.7486 ****
 57 H           7.571996   -2.524381    0.352119 H         1 UNL        0.4134 ****
 58 C          -4.042610   -0.172732   -0.102359 C         1 UNL       -0.1021 ****
 59 H          -3.625941   -0.342464   -1.104947 H         1 UNL        0.0037 ****
 60 H          -3.637021   -0.970343    0.535043 H         1 UNL        0.0037 ****
 61 C          -5.570217   -0.329288   -0.181088 C         1 UNL        0.1311 ****
 62 H          -6.004713   -0.236723    0.821243 H         1 UNL       -0.0319 ****
 63 H          -5.979945    0.499156   -0.775027 H         1 UNL       -0.0319 ****
 64 C          -5.987136   -1.672978   -0.800642 C         1 UNL       -0.1238 ****
 65 H          -5.537869   -2.485576   -0.211235 H         1 UNL        0.0042 ****
 66 H          -5.545407   -1.748538   -1.804855 H         1 UNL        0.0042 ****
 67 C          -7.505747   -1.941677   -0.916992 C         1 UNL        0.4248 ****
 68 H          -7.601063   -2.933215   -1.384017 H         1 UNL       -0.0869 ****
 69 C          -8.201125   -2.020177    0.452300 C         1 UNL       -0.2951 ****
 70 H          -8.205433   -1.049033    0.960560 H         1 UNL        0.0557 ****
 71 H          -9.245180   -2.334758    0.341655 H         1 UNL        0.0557 ****
 72 H          -7.703514   -2.740864    1.111963 H         1 UNL        0.0557 ****
 73 C          -8.215895   -0.937963   -1.840468 C         1 UNL       -0.2911 ****
 74 H          -8.220784    0.071353   -1.413052 H         1 UNL        0.0542 ****
 75 H          -9.260098   -1.228747   -2.002715 H         1 UNL        0.0542 ****
 76 H          -7.728274   -0.883522   -2.820964 H         1 UNL        0.0542 ****
@<TRIPOS>BOND
    1     1     2 1
    2     1     3 1
    3     1    11 1
    4     1    56 1
    5     3     4 1
    6     3     5 1
    7     3     6 1
    8     6     7 1
    9     6    14 1
   10     7     8 1
   11     7    20 1
   12     7    49 1
   13     8     9 1
   14     8    10 1
   15     8    11 1
   16    11    12 1
   17    11    13 1
   18    14    15 1
   19    14    16 1
   20    16    17 1
   21    16    18 1
   22    16    53 1
   23    18    19 1
   24    18    20 1
   25    18    29 1
   26    20    21 1
   27    20    22 1
   28    22    23 1
   29    22    24 1
   30    22    25 1
   31    25    26 1
   32    25    27 1
   33    25    28 1
   34    28    29 1
   35    28    37 1
   36    28    39 1
   37    29    30 1
   38    29    31 1
   39    31    32 1
   40    31    33 1
   41    31    34 1
   42    34    35 1
   43    34    36 1
   44    34    37 1
   45    37    38 1
   46    37    43 1
   47    39    40 1
   48    39    41 1
   49    39    42 1
   50    43    44 1
   51    43    45 1
   52    43    58 1
   53    45    46 1
   54    45    47 1
   55    45    48 1
   56    49    50 1
   57    49    51 1
   58    49    52 1
   59    53    54 1
   60    54    55 1
   61    56    57 1
   62    58    59 1
   63    58    60 1
   64    58    61 1
   65    61    62 1
   66    61    63 1
   67    61    64 1
   68    64    65 1
   69    64    66 1
   70    64    67 1
   71    67    68 1
   72    67    69 1
   73    67    73 1
   74    69    70 1
   75    69    71 1
   76    69    72 1
   77    73    74 1
   78    73    75 1
   79    73    76 1
@<TRIPOS>SUBSTRUCTURE
      1  UNL              1 ****               0 ****  ****  


