@<TRIPOS>MOLECULE
UNL
   75    78     1     0     1
SMALL
USER_CHARGES
@<TRIPOS>ATOM
  1 O           2.136544    3.330968    0.304186 O         1 UNL       -0.7559 ****
  2 H           2.681248    3.350144    1.103716 H         1 UNL        0.4126 ****
  3 O           7.842861   -0.605306   -1.506180 O         1 UNL       -0.7391 ****
  4 H           8.240172   -0.760135   -0.637656 H         1 UNL        0.4076 ****
  5 C          -0.664995   -0.229770    0.852584 C         1 UNL        0.4651 ****
  6 C           0.127083    0.924474    0.172253 C         1 UNL        0.1166 ****
  7 H          -0.001793    0.756024   -0.911135 H         1 UNL       -0.0541 ****
  8 C           1.648146    0.905120    0.406524 C         1 UNL       -0.0726 ****
  9 H           1.858506    1.043945    1.477287 H         1 UNL       -0.0082 ****
 10 C           2.228915   -0.458715   -0.061553 C         1 UNL       -0.0434 ****
 11 H           2.090624   -0.480034   -1.155151 H         1 UNL       -0.0540 ****
 12 C          -2.120595    0.137575    0.398728 C         1 UNL       -0.0698 ****
 13 H          -2.171010   -0.126182   -0.668012 H         1 UNL       -0.0260 ****
 14 C          -0.094519   -1.548767    0.295841 C         1 UNL       -0.2163 ****
 15 H          -0.316578   -1.602497   -0.779806 H         1 UNL        0.0164 ****
 16 H          -0.569154   -2.421873    0.755007 H         1 UNL        0.0164 ****
 17 C           3.775424   -0.586007    0.168549 C         1 UNL        0.3346 ****
 18 C          -0.679476    2.188669    0.512140 C         1 UNL       -0.1078 ****
 19 H          -0.502881    2.998709   -0.199292 H         1 UNL        0.0187 ****
 20 H          -0.390647    2.579492    1.493499 H         1 UNL        0.0187 ****
 21 C           1.427751   -1.650931    0.510222 C         1 UNL        0.1016 ****
 22 H           1.624522   -1.748721    1.583334 H         1 UNL       -0.0147 ****
 23 H           1.779995   -2.582404    0.053365 H         1 UNL       -0.0147 ****
 24 C          -2.152506    1.696663    0.513359 C         1 UNL       -0.0135 ****
 25 H          -2.660828    2.000512    1.436221 H         1 UNL        0.0032 ****
 26 H          -2.724738    2.136826   -0.309772 H         1 UNL        0.0032 ****
 27 C           2.343340    2.059065   -0.342030 C         1 UNL        0.6475 ****
 28 H           1.859137    2.191122   -1.320098 H         1 UNL       -0.0227 ****
 29 C          -3.329056   -0.533783    1.097862 C         1 UNL        0.2665 ****
 30 H          -3.279465   -0.265385    2.163297 H         1 UNL       -0.0621 ****
 31 C          -0.553818   -0.194184    2.393822 C         1 UNL       -0.4727 ****
 32 H           0.482966   -0.239051    2.737364 H         1 UNL        0.0907 ****
 33 H          -0.993643    0.714772    2.814730 H         1 UNL        0.0907 ****
 34 H          -1.077691   -1.046943    2.838692 H         1 UNL        0.0907 ****
 35 C           4.478248    0.693925   -0.296732 C         1 UNL       -0.0414 ****
 36 C           4.311179   -1.774934   -0.689345 C         1 UNL       -0.0938 ****
 37 H           3.893542   -1.683332   -1.701505 H         1 UNL        0.0218 ****
 38 H           3.932841   -2.718332   -0.281748 H         1 UNL        0.0218 ****
 39 C           3.815155    1.832617   -0.546147 C         1 UNL       -0.5432 ****
 40 H           4.360991    2.704481   -0.906678 H         1 UNL        0.1904 ****
 41 C           4.117035   -0.829465    1.663013 C         1 UNL       -0.1549 ****
 42 H           3.784325   -1.818678    1.992135 H         1 UNL        0.0175 ****
 43 H           5.193840   -0.775511    1.843314 H         1 UNL        0.0175 ****
 44 H           3.645143   -0.079114    2.304724 H         1 UNL        0.0175 ****
 45 C           5.982777    0.630355   -0.481708 C         1 UNL       -0.1051 ****
 46 H           6.351419    1.566346   -0.912691 H         1 UNL        0.0381 ****
 47 H           6.473759    0.518795    0.498648 H         1 UNL        0.0381 ****
 48 C           5.841272   -1.854696   -0.805139 C         1 UNL       -0.1584 ****
 49 H           6.291512   -2.059576    0.177562 H         1 UNL        0.0366 ****
 50 H           6.123921   -2.687689   -1.458804 H         1 UNL        0.0366 ****
 51 C          -4.687752    0.026505    0.594595 C         1 UNL       -0.0656 ****
 52 H          -5.472656   -0.418771    1.220033 H         1 UNL       -0.0054 ****
 53 H          -4.730174    1.105993    0.787505 H         1 UNL       -0.0054 ****
 54 C           6.421556   -0.552942   -1.357046 C         1 UNL        0.4726 ****
 55 H           6.050461   -0.397832   -2.377479 H         1 UNL        0.0069 ****
 56 C          -3.322700   -2.071913    1.014052 C         1 UNL       -0.2971 ****
 57 H          -3.202716   -2.424943   -0.016335 H         1 UNL        0.0599 ****
 58 H          -4.265845   -2.479833    1.396751 H         1 UNL        0.0599 ****
 59 H          -2.516800   -2.511211    1.607362 H         1 UNL        0.0599 ****
 60 C          -5.021248   -0.219188   -0.886552 C         1 UNL        0.1115 ****
 61 H          -4.219796    0.191109   -1.513845 H         1 UNL       -0.0301 ****
 62 H          -5.041345   -1.295913   -1.094625 H         1 UNL       -0.0301 ****
 63 C          -6.344233    0.423324   -1.345845 C         1 UNL       -0.1083 ****
 64 H          -6.436987    0.294596   -2.434583 H         1 UNL        0.0005 ****
 65 H          -6.282498    1.507755   -1.174090 H         1 UNL        0.0005 ****
 66 C          -7.640380   -0.099890   -0.690584 C         1 UNL        0.4195 ****
 67 H          -7.558855    0.039238    0.396840 H         1 UNL       -0.0868 ****
 68 C          -7.870827   -1.595600   -0.958872 C         1 UNL       -0.2897 ****
 69 H          -7.938016   -1.791593   -2.037049 H         1 UNL        0.0539 ****
 70 H          -8.806846   -1.935584   -0.501187 H         1 UNL        0.0539 ****
 71 H          -7.063778   -2.216994   -0.557513 H         1 UNL        0.0539 ****
 72 C          -8.845859    0.724899   -1.169768 C         1 UNL       -0.2911 ****
 73 H          -8.982834    0.623616   -2.254163 H         1 UNL        0.0548 ****
 74 H          -9.772189    0.394431   -0.686039 H         1 UNL        0.0548 ****
 75 H          -8.713912    1.790484   -0.949523 H         1 UNL        0.0548 ****
@<TRIPOS>BOND
    1     1     2 1
    2     1    27 1
    3     3     4 1
    4     3    54 1
    5     5     6 1
    6     5    12 1
    7     5    14 1
    8     5    31 1
    9     6     7 1
   10     6     8 1
   11     6    18 1
   12     8     9 1
   13     8    10 1
   14     8    27 1
   15    10    11 1
   16    10    17 1
   17    10    21 1
   18    12    13 1
   19    12    24 1
   20    12    29 1
   21    14    15 1
   22    14    16 1
   23    14    21 1
   24    17    35 1
   25    17    36 1
   26    17    41 1
   27    18    19 1
   28    18    20 1
   29    18    24 1
   30    21    22 1
   31    21    23 1
   32    24    25 1
   33    24    26 1
   34    27    28 1
   35    27    39 1
   36    29    30 1
   37    29    51 1
   38    29    56 1
   39    31    32 1
   40    31    33 1
   41    31    34 1
   42    35    39 1
   43    35    45 1
   44    36    37 1
   45    36    38 1
   46    36    48 1
   47    39    40 1
   48    41    42 1
   49    41    43 1
   50    41    44 1
   51    45    46 1
   52    45    47 1
   53    45    54 1
   54    48    49 1
   55    48    50 1
   56    48    54 1
   57    51    52 1
   58    51    53 1
   59    51    60 1
   60    54    55 1
   61    56    57 1
   62    56    58 1
   63    56    59 1
   64    60    61 1
   65    60    62 1
   66    60    63 1
   67    63    64 1
   68    63    65 1
   69    63    66 1
   70    66    67 1
   71    66    68 1
   72    66    72 1
   73    68    69 1
   74    68    70 1
   75    68    71 1
   76    72    73 1
   77    72    74 1
   78    72    75 1
@<TRIPOS>SUBSTRUCTURE
      1  UNL              1 ****               0 ****  ****  


