@<TRIPOS>MOLECULE
UNL
   75    78     1     0     1
SMALL
USER_CHARGES
@<TRIPOS>ATOM
  1 O           2.237123    3.303875    0.482744 O         1 UNL       -0.7559 ****
  2 H           2.587835    3.222845    1.380929 H         1 UNL        0.4126 ****
  3 O           8.128051   -0.676112   -0.401223 O         1 UNL       -0.7391 ****
  4 H           8.314888   -0.928862    0.513856 H         1 UNL        0.4076 ****
  5 C          -0.686104   -0.172184    0.022786 C         1 UNL        0.4651 ****
  6 C           0.262355    1.007773   -0.340540 C         1 UNL        0.1166 ****
  7 H           0.376509    0.952582   -1.437256 H         1 UNL       -0.0541 ****
  8 C           1.691198    0.901870    0.222360 C         1 UNL       -0.0726 ****
  9 H           1.657106    0.928014    1.321494 H         1 UNL       -0.0082 ****
 10 C           2.336848   -0.433220   -0.242323 C         1 UNL       -0.0434 ****
 11 H           2.449651   -0.343753   -1.335388 H         1 UNL       -0.0540 ****
 12 C          -1.997155    0.296171   -0.700755 C         1 UNL       -0.0698 ****
 13 H          -1.826828    0.124716   -1.775811 H         1 UNL       -0.0260 ****
 14 C          -0.027496   -1.453287   -0.527075 C         1 UNL       -0.2163 ****
 15 H          -0.000850   -1.391451   -1.624673 H         1 UNL        0.0164 ****
 16 H          -0.608090   -2.347793   -0.281171 H         1 UNL        0.0164 ****
 17 C           3.787940   -0.646726    0.313464 C         1 UNL        0.3346 ****
 18 C          -0.574520    2.264357   -0.055446 C         1 UNL       -0.1078 ****
 19 H          -0.219470    3.136997   -0.608406 H         1 UNL        0.0187 ****
 20 H          -0.517906    2.533598    1.004634 H         1 UNL        0.0187 ****
 21 C           1.404047   -1.639400    0.010496 C         1 UNL        0.1016 ****
 22 H           1.350347   -1.847149    1.084676 H         1 UNL       -0.0147 ****
 23 H           1.832112   -2.537269   -0.448964 H         1 UNL       -0.0147 ****
 24 C          -2.013930    1.843109   -0.454783 C         1 UNL       -0.0135 ****
 25 H          -2.727867    2.095349    0.338587 H         1 UNL        0.0032 ****
 26 H          -2.348975    2.376358   -1.349667 H         1 UNL        0.0032 ****
 27 C           2.559417    2.092534   -0.229307 C         1 UNL        0.6475 ****
 28 H           2.311031    2.338616   -1.271519 H         1 UNL       -0.0227 ****
 29 C          -3.351474   -0.376586   -0.352938 C         1 UNL        0.2665 ****
 30 H          -3.564558   -0.160771    0.703539 H         1 UNL       -0.0621 ****
 31 C          -0.924284   -0.287629    1.546054 C         1 UNL       -0.4727 ****
 32 H           0.007640   -0.402629    2.105911 H         1 UNL        0.0907 ****
 33 H          -1.434548    0.593019    1.947144 H         1 UNL        0.0907 ****
 34 H          -1.547556   -1.158185    1.775747 H         1 UNL        0.0907 ****
 35 C           4.602365    0.641362    0.150793 C         1 UNL       -0.0414 ****
 36 C           4.481399   -1.769688   -0.519959 C         1 UNL       -0.0938 ****
 37 H           4.306131   -1.564559   -1.585079 H         1 UNL        0.0218 ****
 38 H           4.002410   -2.730986   -0.306201 H         1 UNL        0.0218 ****
 39 C           4.034735    1.825223   -0.122668 C         1 UNL       -0.5432 ****
 40 H           4.664517    2.704053   -0.260925 H         1 UNL        0.1904 ****
 41 C           3.777213   -1.046022    1.813456 C         1 UNL       -0.1549 ****
 42 H           3.360802   -2.047873    1.956535 H         1 UNL        0.0175 ****
 43 H           4.785927   -1.053603    2.234572 H         1 UNL        0.0175 ****
 44 H           3.185732   -0.342230    2.407069 H         1 UNL        0.0175 ****
 45 C           6.108103    0.533082    0.301625 C         1 UNL       -0.1051 ****
 46 H           6.582747    1.489647    0.062021 H         1 UNL        0.0381 ****
 47 H           6.361507    0.308289    1.350425 H         1 UNL        0.0381 ****
 48 C           5.996003   -1.901883   -0.297584 C         1 UNL       -0.1584 ****
 49 H           6.207286   -2.217857    0.734845 H         1 UNL        0.0366 ****
 50 H           6.403811   -2.679924   -0.952863 H         1 UNL        0.0366 ****
 51 C          -4.481321    0.257812   -1.204633 C         1 UNL       -0.0656 ****
 52 H          -4.448103    1.347446   -1.090163 H         1 UNL       -0.0054 ****
 53 H          -4.262274    0.057095   -2.264165 H         1 UNL       -0.0054 ****
 54 C           6.711230   -0.578821   -0.569492 C         1 UNL        0.4726 ****
 55 H           6.584474   -0.311853   -1.625760 H         1 UNL        0.0069 ****
 56 C          -3.340326   -1.904253   -0.532402 C         1 UNL       -0.2971 ****
 57 H          -3.059347   -2.178271   -1.557294 H         1 UNL        0.0599 ****
 58 H          -4.327191   -2.333870   -0.335372 H         1 UNL        0.0599 ****
 59 H          -2.640287   -2.394286    0.147660 H         1 UNL        0.0599 ****
 60 C          -5.924422   -0.198695   -0.910150 C         1 UNL        0.1115 ****
 61 H          -6.577799    0.305026   -1.633717 H         1 UNL       -0.0301 ****
 62 H          -6.030327   -1.271138   -1.111101 H         1 UNL       -0.0301 ****
 63 C          -6.404172    0.118568    0.515815 C         1 UNL       -0.1083 ****
 64 H          -6.216038    1.182930    0.720345 H         1 UNL        0.0005 ****
 65 H          -5.793602   -0.440138    1.237762 H         1 UNL        0.0005 ****
 66 C          -7.891969   -0.178283    0.820789 C         1 UNL        0.4195 ****
 67 H          -8.042018    0.090762    1.876924 H         1 UNL       -0.0868 ****
 68 C          -8.238052   -1.670176    0.681681 C         1 UNL       -0.2897 ****
 69 H          -8.172361   -2.004558   -0.360109 H         1 UNL        0.0539 ****
 70 H          -9.260501   -1.866891    1.023933 H         1 UNL        0.0539 ****
 71 H          -7.561170   -2.294320    1.277070 H         1 UNL        0.0539 ****
 72 C          -8.854814    0.691162   -0.004941 C         1 UNL       -0.2911 ****
 73 H          -8.816530    0.439881   -1.071094 H         1 UNL        0.0548 ****
 74 H          -9.889642    0.547281    0.326298 H         1 UNL        0.0548 ****
 75 H          -8.616918    1.756582    0.096636 H         1 UNL        0.0548 ****
@<TRIPOS>BOND
    1     1     2 1
    2     1    27 1
    3     3     4 1
    4     3    54 1
    5     5     6 1
    6     5    12 1
    7     5    14 1
    8     5    31 1
    9     6     7 1
   10     6     8 1
   11     6    18 1
   12     8     9 1
   13     8    10 1
   14     8    27 1
   15    10    11 1
   16    10    17 1
   17    10    21 1
   18    12    13 1
   19    12    24 1
   20    12    29 1
   21    14    15 1
   22    14    16 1
   23    14    21 1
   24    17    35 1
   25    17    36 1
   26    17    41 1
   27    18    19 1
   28    18    20 1
   29    18    24 1
   30    21    22 1
   31    21    23 1
   32    24    25 1
   33    24    26 1
   34    27    28 1
   35    27    39 1
   36    29    30 1
   37    29    51 1
   38    29    56 1
   39    31    32 1
   40    31    33 1
   41    31    34 1
   42    35    39 1
   43    35    45 1
   44    36    37 1
   45    36    38 1
   46    36    48 1
   47    39    40 1
   48    41    42 1
   49    41    43 1
   50    41    44 1
   51    45    46 1
   52    45    47 1
   53    45    54 1
   54    48    49 1
   55    48    50 1
   56    48    54 1
   57    51    52 1
   58    51    53 1
   59    51    60 1
   60    54    55 1
   61    56    57 1
   62    56    58 1
   63    56    59 1
   64    60    61 1
   65    60    62 1
   66    60    63 1
   67    63    64 1
   68    63    65 1
   69    63    66 1
   70    66    67 1
   71    66    68 1
   72    66    72 1
   73    68    69 1
   74    68    70 1
   75    68    71 1
   76    72    73 1
   77    72    74 1
   78    72    75 1
@<TRIPOS>SUBSTRUCTURE
      1  UNL              1 ****               0 ****  ****  


