@<TRIPOS>MOLECULE
UNL
   75    78     1     0     1
SMALL
USER_CHARGES
@<TRIPOS>ATOM
  1 O           1.699446    2.974010    1.393007 O         1 UNL       -0.7559 ****
  2 H           2.256860    2.785484    2.161163 H         1 UNL        0.4126 ****
  3 O           7.739445    0.462984   -1.531246 O         1 UNL       -0.7391 ****
  4 H           8.168394    0.074218   -0.755989 H         1 UNL        0.4076 ****
  5 C          -0.710052   -0.839347    0.700095 C         1 UNL        0.4651 ****
  6 C          -0.056326    0.550740    0.450623 C         1 UNL        0.1166 ****
  7 H          -0.193185    0.738458   -0.628606 H         1 UNL       -0.0541 ****
  8 C           1.463801    0.612961    0.683367 C         1 UNL       -0.0726 ****
  9 H           1.683006    0.412213    1.742370 H         1 UNL       -0.0082 ****
 10 C           2.170671   -0.451813   -0.201589 C         1 UNL       -0.0434 ****
 11 H           2.014109   -0.123309   -1.242335 H         1 UNL       -0.0540 ****
 12 C          -2.206275   -0.496549    0.378933 C         1 UNL       -0.0698 ****
 13 H          -2.258205   -0.396462   -0.715428 H         1 UNL       -0.0260 ****
 14 C          -0.022205   -1.831914   -0.257331 C         1 UNL       -0.2163 ****
 15 H          -0.262553   -1.547106   -1.291924 H         1 UNL        0.0164 ****
 16 H          -0.395499   -2.851965   -0.121272 H         1 UNL        0.0164 ****
 17 C           3.726132   -0.488123   -0.002485 C         1 UNL        0.3346 ****
 18 C          -0.978872    1.539589    1.182360 C         1 UNL       -0.1078 ****
 19 H          -0.903438    2.553281    0.782082 H         1 UNL        0.0187 ****
 20 H          -0.707207    1.611216    2.240802 H         1 UNL        0.0187 ****
 21 C           1.507121   -1.842165   -0.070973 C         1 UNL        0.1016 ****
 22 H           1.737218   -2.272138    0.909871 H         1 UNL       -0.0147 ****
 23 H           1.940970   -2.526159   -0.808783 H         1 UNL       -0.0147 ****
 24 C          -2.393591    0.924155    1.004732 C         1 UNL       -0.0135 ****
 25 H          -2.907266    0.850112    1.970714 H         1 UNL        0.0032 ****
 26 H          -3.027362    1.550697    0.369005 H         1 UNL        0.0032 ****
 27 C           2.021006    2.014460    0.366405 C         1 UNL        0.6475 ****
 28 H           1.504755    2.410279   -0.519777 H         1 UNL       -0.0227 ****
 29 C          -3.322304   -1.483383    0.803893 C         1 UNL        0.2665 ****
 30 H          -3.282496   -1.568594    1.899767 H         1 UNL       -0.0621 ****
 31 C          -0.565413   -1.305129    2.166927 C         1 UNL       -0.4727 ****
 32 H           0.478665   -1.354917    2.486916 H         1 UNL        0.0907 ****
 33 H          -1.083369   -0.636857    2.861166 H         1 UNL        0.0907 ****
 34 H          -0.990636   -2.305811    2.298312 H         1 UNL        0.0907 ****
 35 C           4.284873    0.939078   -0.011170 C         1 UNL       -0.0414 ****
 36 C           4.363899   -1.268777   -1.194192 C         1 UNL       -0.0938 ****
 37 H           3.919120   -0.895212   -2.126899 H         1 UNL        0.0218 ****
 38 H           4.092698   -2.327350   -1.123289 H         1 UNL        0.0218 ****
 39 C           3.503603    2.021370    0.118822 C         1 UNL       -0.5432 ****
 40 H           3.949683    3.014839    0.072797 H         1 UNL        0.1904 ****
 41 C           4.119663   -1.171377    1.334621 C         1 UNL       -0.1549 ****
 42 H           3.897321   -2.242745    1.315735 H         1 UNL        0.0175 ****
 43 H           5.188423   -1.067963    1.539498 H         1 UNL        0.0175 ****
 44 H           3.585368   -0.726403    2.179642 H         1 UNL        0.0175 ****
 45 C           5.783838    1.095623   -0.185278 C         1 UNL       -0.1051 ****
 46 H           6.045781    2.153934   -0.280543 H         1 UNL        0.0381 ****
 47 H           6.303487    0.720778    0.711456 H         1 UNL        0.0381 ****
 48 C           5.891457   -1.147456   -1.306631 C         1 UNL       -0.1584 ****
 49 H           6.379719   -1.614385   -0.438293 H         1 UNL        0.0366 ****
 50 H           6.245334   -1.686920   -2.192514 H         1 UNL        0.0366 ****
 51 C          -4.740612   -0.936341    0.484003 C         1 UNL       -0.0656 ****
 52 H          -5.469705   -1.649195    0.896320 H         1 UNL       -0.0054 ****
 53 H          -4.894959   -0.001519    1.034300 H         1 UNL       -0.0054 ****
 54 C           6.323641    0.315980   -1.393463 C         1 UNL        0.4726 ****
 55 H           5.917673    0.756989   -2.312019 H         1 UNL        0.0069 ****
 56 C          -3.152325   -2.903434    0.231428 C         1 UNL       -0.2971 ****
 57 H          -3.006454   -2.894652   -0.854396 H         1 UNL        0.0599 ****
 58 H          -4.041636   -3.509494    0.441622 H         1 UNL        0.0599 ****
 59 H          -2.296755   -3.421565    0.672051 H         1 UNL        0.0599 ****
 60 C          -5.068428   -0.715150   -1.002650 C         1 UNL        0.1115 ****
 61 H          -4.423702    0.069091   -1.418302 H         1 UNL       -0.0301 ****
 62 H          -4.833212   -1.625914   -1.567497 H         1 UNL       -0.0301 ****
 63 C          -6.545601   -0.370329   -1.273190 C         1 UNL       -0.1083 ****
 64 H          -7.168552   -1.192697   -0.892338 H         1 UNL        0.0005 ****
 65 H          -6.707592   -0.347216   -2.361206 H         1 UNL        0.0005 ****
 66 C          -7.074101    0.954428   -0.682736 C         1 UNL        0.4195 ****
 67 H          -6.912712    0.937457    0.404566 H         1 UNL       -0.0868 ****
 68 C          -8.588073    1.073641   -0.920864 C         1 UNL       -0.2897 ****
 69 H          -8.814392    1.096291   -1.994758 H         1 UNL        0.0539 ****
 70 H          -8.989984    1.991979   -0.477723 H         1 UNL        0.0539 ****
 71 H          -9.129188    0.225930   -0.484955 H         1 UNL        0.0539 ****
 72 C          -6.342650    2.181460   -1.249817 C         1 UNL       -0.2911 ****
 73 H          -6.459832    2.234402   -2.340158 H         1 UNL        0.0548 ****
 74 H          -6.746852    3.108409   -0.827363 H         1 UNL        0.0548 ****
 75 H          -5.270253    2.161348   -1.030925 H         1 UNL        0.0548 ****
@<TRIPOS>BOND
    1     1     2 1
    2     1    27 1
    3     3     4 1
    4     3    54 1
    5     5     6 1
    6     5    12 1
    7     5    14 1
    8     5    31 1
    9     6     7 1
   10     6     8 1
   11     6    18 1
   12     8     9 1
   13     8    10 1
   14     8    27 1
   15    10    11 1
   16    10    17 1
   17    10    21 1
   18    12    13 1
   19    12    24 1
   20    12    29 1
   21    14    15 1
   22    14    16 1
   23    14    21 1
   24    17    35 1
   25    17    36 1
   26    17    41 1
   27    18    19 1
   28    18    20 1
   29    18    24 1
   30    21    22 1
   31    21    23 1
   32    24    25 1
   33    24    26 1
   34    27    28 1
   35    27    39 1
   36    29    30 1
   37    29    51 1
   38    29    56 1
   39    31    32 1
   40    31    33 1
   41    31    34 1
   42    35    39 1
   43    35    45 1
   44    36    37 1
   45    36    38 1
   46    36    48 1
   47    39    40 1
   48    41    42 1
   49    41    43 1
   50    41    44 1
   51    45    46 1
   52    45    47 1
   53    45    54 1
   54    48    49 1
   55    48    50 1
   56    48    54 1
   57    51    52 1
   58    51    53 1
   59    51    60 1
   60    54    55 1
   61    56    57 1
   62    56    58 1
   63    56    59 1
   64    60    61 1
   65    60    62 1
   66    60    63 1
   67    63    64 1
   68    63    65 1
   69    63    66 1
   70    66    67 1
   71    66    68 1
   72    66    72 1
   73    68    69 1
   74    68    70 1
   75    68    71 1
   76    72    73 1
   77    72    74 1
   78    72    75 1
@<TRIPOS>SUBSTRUCTURE
      1  UNL              1 ****               0 ****  ****  


