@<TRIPOS>MOLECULE
UNL
   75    78     1     0     1
SMALL
USER_CHARGES
@<TRIPOS>ATOM
  1 O           2.279126    3.322321    0.247786 O         1 UNL       -0.7559 ****
  2 H           2.694472    3.322863    1.121735 H         1 UNL        0.4126 ****
  3 O           8.167511   -0.639708   -0.729913 O         1 UNL       -0.7391 ****
  4 H           8.425009   -0.811534    0.186780 H         1 UNL        0.4076 ****
  5 C          -0.600984   -0.218603    0.297980 C         1 UNL        0.4651 ****
  6 C           0.295769    0.938087   -0.232341 C         1 UNL        0.1166 ****
  7 H           0.332101    0.790651   -1.325905 H         1 UNL       -0.0541 ****
  8 C           1.763063    0.899872    0.231502 C         1 UNL       -0.0726 ****
  9 H           1.807633    1.019567    1.324056 H         1 UNL       -0.0082 ****
 10 C           2.399331   -0.461524   -0.164922 C         1 UNL       -0.0434 ****
 11 H           2.430870   -0.464792   -1.266988 H         1 UNL       -0.0540 ****
 12 C          -1.969628    0.167562   -0.365110 C         1 UNL       -0.0698 ****
 13 H          -1.874694   -0.096487   -1.430592 H         1 UNL       -0.0260 ****
 14 C           0.041000   -1.533633   -0.187476 C         1 UNL       -0.2163 ****
 15 H          -0.012362   -1.566287   -1.285362 H         1 UNL        0.0164 ****
 16 H          -0.503260   -2.410918    0.175598 H         1 UNL        0.0164 ****
 17 C           3.890934   -0.607248    0.298203 C         1 UNL        0.3346 ****
 18 C          -0.543094    2.203054    0.005715 C         1 UNL       -0.1078 ****
 19 H          -0.244070    3.030734   -0.641465 H         1 UNL        0.0187 ****
 20 H          -0.418467    2.561306    1.033102 H         1 UNL        0.0187 ****
 21 C           1.510960   -1.653811    0.257404 C         1 UNL        0.1016 ****
 22 H           1.538893   -1.768872    1.346385 H         1 UNL       -0.0147 ****
 23 H           1.922202   -2.582186   -0.154304 H         1 UNL       -0.0147 ****
 24 C          -1.998150    1.730214   -0.255064 C         1 UNL       -0.0135 ****
 25 H          -2.662375    2.043684    0.559487 H         1 UNL        0.0032 ****
 26 H          -2.400673    2.177890   -1.168817 H         1 UNL        0.0032 ****
 27 C           2.573042    2.059006   -0.381416 C         1 UNL        0.6475 ****
 28 H           2.245477    2.211852   -1.419595 H         1 UNL       -0.0227 ****
 29 C          -3.280891   -0.489744    0.140127 C         1 UNL        0.2665 ****
 30 H          -3.429339   -0.180008    1.186019 H         1 UNL       -0.0621 ****
 31 C          -0.727007   -0.204801    1.838885 C         1 UNL       -0.4727 ****
 32 H           0.244812   -0.259420    2.336510 H         1 UNL        0.0907 ****
 33 H          -1.223237    0.700937    2.199675 H         1 UNL        0.0907 ****
 34 H          -1.315972   -1.059555    2.187278 H         1 UNL        0.0907 ****
 35 C           4.666075    0.673025   -0.031672 C         1 UNL       -0.0414 ****
 36 C           4.543870   -1.787676   -0.487068 C         1 UNL       -0.0938 ****
 37 H           4.288041   -1.676123   -1.549808 H         1 UNL        0.0218 ****
 38 H           4.100256   -2.733528   -0.158757 H         1 UNL        0.0218 ****
 39 C           4.057135    1.821523   -0.361302 C         1 UNL       -0.5432 ****
 40 H           4.657991    2.693653   -0.619074 H         1 UNL        0.1904 ****
 41 C           3.996448   -0.877469    1.823140 C         1 UNL       -0.1549 ****
 42 H           3.611158   -1.868999    2.080084 H         1 UNL        0.0175 ****
 43 H           5.032807   -0.835510    2.168292 H         1 UNL        0.0175 ****
 44 H           3.435431   -0.133679    2.397237 H         1 UNL        0.0175 ****
 45 C           6.180600    0.598049    0.016126 C         1 UNL       -0.1051 ****
 46 H           6.617859    1.536945   -0.337423 H         1 UNL        0.0381 ****
 47 H           6.513743    0.466936    1.058471 H         1 UNL        0.0381 ****
 48 C           6.072832   -1.880442   -0.366757 C         1 UNL       -0.1584 ****
 49 H           6.364451   -2.104584    0.670115 H         1 UNL        0.0366 ****
 50 H           6.447191   -2.705908   -0.982794 H         1 UNL        0.0366 ****
 51 C          -4.490639    0.041724   -0.668835 C         1 UNL       -0.0656 ****
 52 H          -4.423635    1.132659   -0.747010 H         1 UNL       -0.0054 ****
 53 H          -4.421171   -0.340876   -1.698927 H         1 UNL       -0.0054 ****
 54 C           6.740609   -0.575908   -0.800697 C         1 UNL        0.4726 ****
 55 H           6.532462   -0.401413   -1.863360 H         1 UNL        0.0069 ****
 56 C          -3.247800   -2.027974    0.099888 C         1 UNL       -0.2971 ****
 57 H          -3.012298   -2.388275   -0.909547 H         1 UNL        0.0599 ****
 58 H          -4.214997   -2.452470    0.384943 H         1 UNL        0.0599 ****
 59 H          -2.504983   -2.444245    0.783939 H         1 UNL        0.0599 ****
 60 C          -5.874432   -0.300509   -0.091831 C         1 UNL        0.1115 ****
 61 H          -6.016899   -1.386825   -0.069205 H         1 UNL       -0.0301 ****
 62 H          -5.914842    0.039592    0.951989 H         1 UNL       -0.0301 ****
 63 C          -7.013565    0.347061   -0.896282 C         1 UNL       -0.1083 ****
 64 H          -6.932172    0.021508   -1.943560 H         1 UNL        0.0005 ****
 65 H          -6.862142    1.436149   -0.906068 H         1 UNL        0.0005 ****
 66 C          -8.454126    0.062000   -0.410996 C         1 UNL        0.4195 ****
 67 H          -9.116702    0.609427   -1.097743 H         1 UNL       -0.0868 ****
 68 C          -8.721602    0.605181    1.002486 C         1 UNL       -0.2897 ****
 69 H          -8.142437    0.064374    1.759837 H         1 UNL        0.0539 ****
 70 H          -9.780440    0.501818    1.266047 H         1 UNL        0.0539 ****
 71 H          -8.460944    1.667495    1.077707 H         1 UNL        0.0539 ****
 72 C          -8.831302   -1.425414   -0.511738 C         1 UNL       -0.2911 ****
 73 H          -8.256321   -2.037530    0.192679 H         1 UNL        0.0548 ****
 74 H          -9.892597   -1.574697   -0.282312 H         1 UNL        0.0548 ****
 75 H          -8.649617   -1.815833   -1.520039 H         1 UNL        0.0548 ****
@<TRIPOS>BOND
    1     1     2 1
    2     1    27 1
    3     3     4 1
    4     3    54 1
    5     5     6 1
    6     5    12 1
    7     5    14 1
    8     5    31 1
    9     6     7 1
   10     6     8 1
   11     6    18 1
   12     8     9 1
   13     8    10 1
   14     8    27 1
   15    10    11 1
   16    10    17 1
   17    10    21 1
   18    12    13 1
   19    12    24 1
   20    12    29 1
   21    14    15 1
   22    14    16 1
   23    14    21 1
   24    17    35 1
   25    17    36 1
   26    17    41 1
   27    18    19 1
   28    18    20 1
   29    18    24 1
   30    21    22 1
   31    21    23 1
   32    24    25 1
   33    24    26 1
   34    27    28 1
   35    27    39 1
   36    29    30 1
   37    29    51 1
   38    29    56 1
   39    31    32 1
   40    31    33 1
   41    31    34 1
   42    35    39 1
   43    35    45 1
   44    36    37 1
   45    36    38 1
   46    36    48 1
   47    39    40 1
   48    41    42 1
   49    41    43 1
   50    41    44 1
   51    45    46 1
   52    45    47 1
   53    45    54 1
   54    48    49 1
   55    48    50 1
   56    48    54 1
   57    51    52 1
   58    51    53 1
   59    51    60 1
   60    54    55 1
   61    56    57 1
   62    56    58 1
   63    56    59 1
   64    60    61 1
   65    60    62 1
   66    60    63 1
   67    63    64 1
   68    63    65 1
   69    63    66 1
   70    66    67 1
   71    66    68 1
   72    66    72 1
   73    68    69 1
   74    68    70 1
   75    68    71 1
   76    72    73 1
   77    72    74 1
   78    72    75 1
@<TRIPOS>SUBSTRUCTURE
      1  UNL              1 ****               0 ****  ****  


