@<TRIPOS>MOLECULE
UNL
   75    78     1     0     1
SMALL
USER_CHARGES
@<TRIPOS>ATOM
  1 O          -2.208858   -2.596920   -2.264739 O         1 UNL       -0.7559 ****
  2 H          -2.818973   -3.107441   -1.713881 H         1 UNL        0.4126 ****
  3 O          -7.039289    2.292245   -0.242745 O         1 UNL       -0.7391 ****
  4 H          -7.484455    1.823874    0.477407 H         1 UNL        0.4076 ****
  5 C           1.052355   -1.151959    0.588645 C         1 UNL        0.4651 ****
  6 C           0.152859   -1.285821   -0.676853 C         1 UNL        0.1166 ****
  7 H           0.403346   -0.410219   -1.299921 H         1 UNL       -0.0541 ****
  8 C          -1.361086   -1.175806   -0.422299 C         1 UNL       -0.0726 ****
  9 H          -1.695038   -2.016859    0.202586 H         1 UNL       -0.0082 ****
 10 C          -1.672388    0.163451    0.305260 C         1 UNL       -0.0434 ****
 11 H          -1.432546    0.957573   -0.421023 H         1 UNL       -0.0540 ****
 12 C           2.458117   -1.300102   -0.090976 C         1 UNL       -0.0698 ****
 13 H           2.566051   -0.383249   -0.687140 H         1 UNL       -0.0260 ****
 14 C           0.749718    0.221120    1.216029 C         1 UNL       -0.2163 ****
 15 H           1.064983    1.010102    0.518909 H         1 UNL        0.0164 ****
 16 H           1.320185    0.372204    2.140090 H         1 UNL        0.0164 ****
 17 C          -3.194227    0.346132    0.639685 C         1 UNL        0.3346 ****
 18 C           0.717712   -2.518168   -1.408935 C         1 UNL       -0.1078 ****
 19 H           0.487000   -2.508010   -2.476638 H         1 UNL        0.0187 ****
 20 H           0.275614   -3.438045   -1.011774 H         1 UNL        0.0187 ****
 21 C          -0.749939    0.387652    1.526460 C         1 UNL        0.1016 ****
 22 H          -1.021967   -0.305013    2.330009 H         1 UNL       -0.0147 ****
 23 H          -0.912041    1.394178    1.927649 H         1 UNL       -0.0147 ****
 24 C           2.243816   -2.455537   -1.118847 C         1 UNL       -0.0135 ****
 25 H           2.602479   -3.411026   -0.722231 H         1 UNL        0.0032 ****
 26 H           2.825325   -2.265491   -2.027923 H         1 UNL        0.0032 ****
 27 C          -2.155339   -1.255244   -1.740593 C         1 UNL        0.6475 ****
 28 H          -1.610219   -0.701941   -2.518520 H         1 UNL       -0.0227 ****
 29 C           3.798593   -1.423681    0.689133 C         1 UNL        0.2665 ****
 30 H           4.544502   -1.574897   -0.105978 H         1 UNL       -0.0621 ****
 31 C           0.771475   -2.277621    1.611460 C         1 UNL       -0.4727 ****
 32 H          -0.293962   -2.368406    1.838690 H         1 UNL        0.0907 ****
 33 H           1.107447   -3.254033    1.253994 H         1 UNL        0.0907 ****
 34 H           1.283876   -2.078385    2.557087 H         1 UNL        0.0907 ****
 35 C          -4.044729   -0.029163   -0.578965 C         1 UNL       -0.0414 ****
 36 C          -3.456001    1.849087    0.970656 C         1 UNL       -0.0938 ****
 37 H          -2.967924    2.460478    0.199120 H         1 UNL        0.0218 ****
 38 H          -2.972588    2.103184    1.919832 H         1 UNL        0.0218 ****
 39 C          -3.549006   -0.704191   -1.626373 C         1 UNL       -0.5432 ****
 40 H          -4.190351   -0.915264   -2.482055 H         1 UNL        0.1904 ****
 41 C          -3.627951   -0.532926    1.843247 C         1 UNL       -0.1549 ****
 42 H          -3.175180   -0.183132    2.776088 H         1 UNL        0.0175 ****
 43 H          -4.711695   -0.514562    1.984632 H         1 UNL        0.0175 ****
 44 H          -3.340284   -1.578281    1.694951 H         1 UNL        0.0175 ****
 45 C          -5.497690    0.407409   -0.570814 C         1 UNL       -0.1051 ****
 46 H          -5.968971    0.173591   -1.530461 H         1 UNL        0.0381 ****
 47 H          -6.051045   -0.155026    0.198664 H         1 UNL        0.0381 ****
 48 C          -4.937578    2.250859    1.037871 C         1 UNL       -0.1584 ****
 49 H          -5.437098    1.741088    1.875137 H         1 UNL        0.0366 ****
 50 H          -5.025025    3.326418    1.229104 H         1 UNL        0.0366 ****
 51 C           4.221664   -0.146343    1.455785 C         1 UNL       -0.0656 ****
 52 H           3.503379    0.040148    2.264459 H         1 UNL       -0.0054 ****
 53 H           5.176512   -0.365218    1.955659 H         1 UNL       -0.0054 ****
 54 C          -5.663443    1.902597   -0.261260 C         1 UNL        0.4726 ****
 55 H          -5.230539    2.486237   -1.082843 H         1 UNL        0.0069 ****
 56 C           3.948091   -2.637071    1.629229 C         1 UNL       -0.2971 ****
 57 H           3.409480   -2.497681    2.571239 H         1 UNL        0.0599 ****
 58 H           5.005527   -2.778360    1.880341 H         1 UNL        0.0599 ****
 59 H           3.594949   -3.568151    1.176580 H         1 UNL        0.0599 ****
 60 C           4.402513    1.150382    0.642514 C         1 UNL        0.1115 ****
 61 H           3.452674    1.439295    0.178597 H         1 UNL       -0.0301 ****
 62 H           4.643366    1.950894    1.353523 H         1 UNL       -0.0301 ****
 63 C           5.504607    1.071536   -0.427167 C         1 UNL       -0.1083 ****
 64 H           5.227912    0.321973   -1.180444 H         1 UNL        0.0005 ****
 65 H           6.425933    0.699983    0.045391 H         1 UNL        0.0005 ****
 66 C           5.836821    2.389160   -1.167461 C         1 UNL        0.4195 ****
 67 H           6.621432    2.135181   -1.895510 H         1 UNL       -0.0868 ****
 68 C           6.419761    3.465566   -0.236627 C         1 UNL       -0.2897 ****
 69 H           5.676922    3.824581    0.484947 H         1 UNL        0.0539 ****
 70 H           6.760480    4.333916   -0.812068 H         1 UNL        0.0539 ****
 71 H           7.277523    3.082292    0.328512 H         1 UNL        0.0539 ****
 72 C           4.641783    2.937367   -1.964982 C         1 UNL       -0.2911 ****
 73 H           3.835043    3.273664   -1.303432 H         1 UNL        0.0548 ****
 74 H           4.941902    3.796056   -2.576360 H         1 UNL        0.0548 ****
 75 H           4.228212    2.177079   -2.638058 H         1 UNL        0.0548 ****
@<TRIPOS>BOND
    1     1     2 1
    2     1    27 1
    3     3     4 1
    4     3    54 1
    5     5     6 1
    6     5    12 1
    7     5    14 1
    8     5    31 1
    9     6     7 1
   10     6     8 1
   11     6    18 1
   12     8     9 1
   13     8    10 1
   14     8    27 1
   15    10    11 1
   16    10    17 1
   17    10    21 1
   18    12    13 1
   19    12    24 1
   20    12    29 1
   21    14    15 1
   22    14    16 1
   23    14    21 1
   24    17    35 1
   25    17    36 1
   26    17    41 1
   27    18    19 1
   28    18    20 1
   29    18    24 1
   30    21    22 1
   31    21    23 1
   32    24    25 1
   33    24    26 1
   34    27    28 1
   35    27    39 1
   36    29    30 1
   37    29    51 1
   38    29    56 1
   39    31    32 1
   40    31    33 1
   41    31    34 1
   42    35    39 1
   43    35    45 1
   44    36    37 1
   45    36    38 1
   46    36    48 1
   47    39    40 1
   48    41    42 1
   49    41    43 1
   50    41    44 1
   51    45    46 1
   52    45    47 1
   53    45    54 1
   54    48    49 1
   55    48    50 1
   56    48    54 1
   57    51    52 1
   58    51    53 1
   59    51    60 1
   60    54    55 1
   61    56    57 1
   62    56    58 1
   63    56    59 1
   64    60    61 1
   65    60    62 1
   66    60    63 1
   67    63    64 1
   68    63    65 1
   69    63    66 1
   70    66    67 1
   71    66    68 1
   72    66    72 1
   73    68    69 1
   74    68    70 1
   75    68    71 1
   76    72    73 1
   77    72    74 1
   78    72    75 1
@<TRIPOS>SUBSTRUCTURE
      1  UNL              1 ****               0 ****  ****  


