@<TRIPOS>MOLECULE
UNL
   75    78     1     0     1
SMALL
USER_CHARGES
@<TRIPOS>ATOM
  1 O           2.061572    2.552101   -2.222208 O         1 UNL       -0.7559 ****
  2 H           2.676347    3.102393   -1.716699 H         1 UNL        0.4126 ****
  3 O           7.412169   -1.956986   -0.681456 O         1 UNL       -0.7391 ****
  4 H           7.878608   -1.458047    0.003858 H         1 UNL        0.4076 ****
  5 C          -0.826224    0.837290    0.868188 C         1 UNL        0.4651 ****
  6 C          -0.051220    1.035126   -0.466898 C         1 UNL        0.1166 ****
  7 H          -0.284572    0.137450   -1.065515 H         1 UNL       -0.0541 ****
  8 C           1.482553    1.049580   -0.340146 C         1 UNL       -0.0726 ****
  9 H           1.794340    1.910971    0.268747 H         1 UNL       -0.0082 ****
 10 C           1.961004   -0.263927    0.339684 C         1 UNL       -0.0434 ****
 11 H           1.724709   -1.070206   -0.374194 H         1 UNL       -0.0540 ****
 12 C          -2.299839    0.888819    0.334049 C         1 UNL       -0.0698 ****
 13 H          -2.455438   -0.065145   -0.192055 H         1 UNL       -0.0260 ****
 14 C          -0.364541   -0.510505    1.455713 C         1 UNL       -0.2163 ****
 15 H          -0.684737   -1.317220    0.780429 H         1 UNL        0.0164 ****
 16 H          -0.832234   -0.711807    2.424673 H         1 UNL        0.0164 ****
 17 C           3.515113   -0.326153    0.543695 C         1 UNL        0.3346 ****
 18 C          -0.769118    2.210512   -1.151010 C         1 UNL       -0.1078 ****
 19 H          -0.628588    2.209319   -2.234432 H         1 UNL        0.0187 ****
 20 H          -0.371160    3.166729   -0.795469 H         1 UNL        0.0187 ****
 21 C           1.165163   -0.566409    1.630159 C         1 UNL        0.1016 ****
 22 H           1.453918    0.138734    2.417059 H         1 UNL       -0.0147 ****
 23 H           1.434930   -1.560728    2.002998 H         1 UNL       -0.0147 ****
 24 C          -2.254486    2.028937   -0.734879 C         1 UNL       -0.0135 ****
 25 H          -2.653958    2.959594   -0.314552 H         1 UNL        0.0032 ****
 26 H          -2.887635    1.785886   -1.594087 H         1 UNL        0.0032 ****
 27 C           2.155777    1.204951   -1.717901 C         1 UNL        0.6475 ****
 28 H           1.591801    0.618571   -2.457222 H         1 UNL       -0.0227 ****
 29 C          -3.469866    1.056461    1.334809 C         1 UNL        0.2665 ****
 30 H          -3.323164    2.020673    1.844134 H         1 UNL       -0.0621 ****
 31 C          -0.574863    1.985846    1.871682 C         1 UNL       -0.4727 ****
 32 H           0.485810    2.109642    2.105311 H         1 UNL        0.0907 ****
 33 H          -0.934975    2.946612    1.492307 H         1 UNL        0.0907 ****
 34 H          -1.092505    1.793027    2.817311 H         1 UNL        0.0907 ****
 35 C           4.226894    0.122047   -0.737375 C         1 UNL       -0.0414 ****
 36 C           3.921258   -1.805018    0.834362 C         1 UNL       -0.0938 ****
 37 H           3.419410   -2.449521    0.099466 H         1 UNL        0.0218 ****
 38 H           3.540914   -2.101004    1.817671 H         1 UNL        0.0218 ****
 39 C           3.592569    0.763642   -1.729577 C         1 UNL       -0.5432 ****
 40 H           4.140078    1.030362   -2.633553 H         1 UNL        0.1904 ****
 41 C           3.978243    0.579031    1.716611 C         1 UNL       -0.1549 ****
 42 H           3.636584    0.188972    2.680316 H         1 UNL        0.0175 ****
 43 H           5.068077    0.648008    1.765328 H         1 UNL        0.0175 ****
 44 H           3.595786    1.598336    1.605634 H         1 UNL        0.0175 ****
 45 C           5.704797   -0.199101   -0.857682 C         1 UNL       -0.1051 ****
 46 H           6.072534    0.075183   -1.851292 H         1 UNL        0.0381 ****
 47 H           6.276312    0.402075   -0.132000 H         1 UNL        0.0381 ****
 48 C           5.430202   -2.088093    0.772406 C         1 UNL       -0.1584 ****
 49 H           5.957031   -1.543603    1.570139 H         1 UNL        0.0366 ****
 50 H           5.618196   -3.154066    0.943869 H         1 UNL        0.0366 ****
 51 C          -4.839706    1.205952    0.611473 C         1 UNL       -0.0656 ****
 52 H          -5.612913    1.330204    1.383239 H         1 UNL       -0.0054 ****
 53 H          -4.820873    2.154234    0.061360 H         1 UNL       -0.0054 ****
 54 C           6.013328   -1.677745   -0.579500 C         1 UNL        0.4726 ****
 55 H           5.559476   -2.290557   -1.367866 H         1 UNL        0.0069 ****
 56 C          -3.506914   -0.020021    2.437333 C         1 UNL       -0.2971 ****
 57 H          -3.419528   -1.033057    2.032621 H         1 UNL        0.0599 ****
 58 H          -4.447983    0.033280    2.996275 H         1 UNL        0.0599 ****
 59 H          -2.695303    0.114420    3.157887 H         1 UNL        0.0599 ****
 60 C          -5.306463    0.114726   -0.378010 C         1 UNL        0.1115 ****
 61 H          -6.126803    0.552771   -0.960925 H         1 UNL       -0.0301 ****
 62 H          -4.510068   -0.093973   -1.102459 H         1 UNL       -0.0301 ****
 63 C          -5.801641   -1.201414    0.247474 C         1 UNL       -0.1083 ****
 64 H          -6.496999   -0.963647    1.065578 H         1 UNL        0.0005 ****
 65 H          -4.961017   -1.731705    0.709624 H         1 UNL        0.0005 ****
 66 C          -6.508530   -2.185154   -0.716605 C         1 UNL        0.4195 ****
 67 H          -6.756153   -3.070504   -0.112327 H         1 UNL       -0.0868 ****
 68 C          -5.590554   -2.658467   -1.856037 C         1 UNL       -0.2897 ****
 69 H          -5.346285   -1.840485   -2.543585 H         1 UNL        0.0539 ****
 70 H          -6.073520   -3.446808   -2.444694 H         1 UNL        0.0539 ****
 71 H          -4.647824   -3.062016   -1.467829 H         1 UNL        0.0539 ****
 72 C          -7.834891   -1.635797   -1.268194 C         1 UNL       -0.2911 ****
 73 H          -7.676440   -0.783260   -1.938509 H         1 UNL        0.0548 ****
 74 H          -8.365119   -2.404998   -1.841336 H         1 UNL        0.0548 ****
 75 H          -8.497268   -1.306707   -0.458876 H         1 UNL        0.0548 ****
@<TRIPOS>BOND
    1     1     2 1
    2     1    27 1
    3     3     4 1
    4     3    54 1
    5     5     6 1
    6     5    12 1
    7     5    14 1
    8     5    31 1
    9     6     7 1
   10     6     8 1
   11     6    18 1
   12     8     9 1
   13     8    10 1
   14     8    27 1
   15    10    11 1
   16    10    17 1
   17    10    21 1
   18    12    13 1
   19    12    24 1
   20    12    29 1
   21    14    15 1
   22    14    16 1
   23    14    21 1
   24    17    35 1
   25    17    36 1
   26    17    41 1
   27    18    19 1
   28    18    20 1
   29    18    24 1
   30    21    22 1
   31    21    23 1
   32    24    25 1
   33    24    26 1
   34    27    28 1
   35    27    39 1
   36    29    30 1
   37    29    51 1
   38    29    56 1
   39    31    32 1
   40    31    33 1
   41    31    34 1
   42    35    39 1
   43    35    45 1
   44    36    37 1
   45    36    38 1
   46    36    48 1
   47    39    40 1
   48    41    42 1
   49    41    43 1
   50    41    44 1
   51    45    46 1
   52    45    47 1
   53    45    54 1
   54    48    49 1
   55    48    50 1
   56    48    54 1
   57    51    52 1
   58    51    53 1
   59    51    60 1
   60    54    55 1
   61    56    57 1
   62    56    58 1
   63    56    59 1
   64    60    61 1
   65    60    62 1
   66    60    63 1
   67    63    64 1
   68    63    65 1
   69    63    66 1
   70    66    67 1
   71    66    68 1
   72    66    72 1
   73    68    69 1
   74    68    70 1
   75    68    71 1
   76    72    73 1
   77    72    74 1
   78    72    75 1
@<TRIPOS>SUBSTRUCTURE
      1  UNL              1 ****               0 ****  ****  


