@<TRIPOS>MOLECULE
UNL
   75    78     1     0     1
SMALL
USER_CHARGES
@<TRIPOS>ATOM
  1 O           2.392193    3.316534    0.457728 O         1 UNL       -0.7559 ****
  2 H           2.779831    3.226005    1.339678 H         1 UNL        0.4126 ****
  3 O           8.009880   -0.990805   -0.646307 O         1 UNL       -0.7391 ****
  4 H           8.225350   -1.245783    0.261834 H         1 UNL        0.4076 ****
  5 C          -0.733337    0.003472    0.171541 C         1 UNL        0.4651 ****
  6 C           0.260357    1.125249   -0.249145 C         1 UNL        0.1166 ****
  7 H           0.322100    1.052951   -1.349111 H         1 UNL       -0.0541 ****
  8 C           1.704800    0.946276    0.251501 C         1 UNL       -0.0726 ****
  9 H           1.721556    0.985685    1.350615 H         1 UNL       -0.0082 ****
 10 C           2.254249   -0.427815   -0.223974 C         1 UNL       -0.0434 ****
 11 H           2.320736   -0.356870   -1.322195 H         1 UNL       -0.0540 ****
 12 C          -2.047815    0.532682   -0.501010 C         1 UNL       -0.0698 ****
 13 H          -1.939503    0.332796   -1.579178 H         1 UNL       -0.0260 ****
 14 C          -0.172771   -1.319185   -0.387519 C         1 UNL       -0.2163 ****
 15 H          -0.192396   -1.272469   -1.486013 H         1 UNL        0.0164 ****
 16 H          -0.791390   -2.175950   -0.102316 H         1 UNL        0.0164 ****
 17 C           3.715906   -0.715357    0.267243 C         1 UNL        0.3346 ****
 18 C          -0.494524    2.428079    0.057454 C         1 UNL       -0.1078 ****
 19 H          -0.113753    3.277038   -0.514895 H         1 UNL        0.0187 ****
 20 H          -0.383093    2.699304    1.112650 H         1 UNL        0.0187 ****
 21 C           1.269582   -1.578059    0.087841 C         1 UNL        0.1016 ****
 22 H           1.254069   -1.770236    1.166162 H         1 UNL       -0.0147 ****
 23 H           1.626646   -2.503299   -0.377865 H         1 UNL       -0.0147 ****
 24 C          -1.968477    2.083518   -0.285487 C         1 UNL       -0.0135 ****
 25 H          -2.642273    2.393019    0.522326 H         1 UNL        0.0032 ****
 26 H          -2.297290    2.619994   -1.180698 H         1 UNL        0.0032 ****
 27 C           2.615725    2.082398   -0.253054 C         1 UNL        0.6475 ****
 28 H           2.334492    2.331558   -1.286155 H         1 UNL       -0.0227 ****
 29 C          -3.418400   -0.051726   -0.072129 C         1 UNL        0.2665 ****
 30 H          -3.564436    0.206016    0.987193 H         1 UNL       -0.0621 ****
 31 C          -0.907717   -0.079027    1.705747 C         1 UNL       -0.4727 ****
 32 H           0.042001   -0.234493    2.224260 H         1 UNL        0.0907 ****
 33 H          -1.353027    0.832171    2.115780 H         1 UNL        0.0907 ****
 34 H          -1.563039   -0.912827    1.977832 H         1 UNL        0.0907 ****
 35 C           4.591180    0.524212    0.052313 C         1 UNL       -0.0414 ****
 36 C           4.307448   -1.882721   -0.583610 C         1 UNL       -0.0938 ****
 37 H           4.094343   -1.678320   -1.641953 H         1 UNL        0.0218 ****
 38 H           3.787105   -2.814086   -0.336559 H         1 UNL        0.0218 ****
 39 C           4.077480    1.735113   -0.209072 C         1 UNL       -0.5432 ****
 40 H           4.747578    2.576370   -0.386056 H         1 UNL        0.1904 ****
 41 C           3.753038   -1.099184    1.770846 C         1 UNL       -0.1549 ****
 42 H           3.289355   -2.075014    1.944946 H         1 UNL        0.0175 ****
 43 H           4.778293   -1.158550    2.145347 H         1 UNL        0.0175 ****
 44 H           3.229283   -0.358000    2.382315 H         1 UNL        0.0175 ****
 45 C           6.094091    0.334000    0.135398 C         1 UNL       -0.1051 ****
 46 H           6.609017    1.260630   -0.136497 H         1 UNL        0.0381 ****
 47 H           6.383214    0.104541    1.173859 H         1 UNL        0.0381 ****
 48 C           5.821261   -2.096253   -0.429710 C         1 UNL       -0.1584 ****
 49 H           6.063072   -2.413943    0.595469 H         1 UNL        0.0366 ****
 50 H           6.154807   -2.901572   -1.093982 H         1 UNL        0.0366 ****
 51 C          -4.579407    0.610882   -0.877719 C         1 UNL       -0.0656 ****
 52 H          -4.201599    1.478312   -1.428541 H         1 UNL       -0.0054 ****
 53 H          -4.927921   -0.090798   -1.647559 H         1 UNL       -0.0054 ****
 54 C           6.594177   -0.817179   -0.749857 C         1 UNL        0.4726 ****
 55 H           6.432707   -0.553155   -1.802123 H         1 UNL        0.0069 ****
 56 C          -3.499510   -1.584296   -0.197083 C         1 UNL       -0.2971 ****
 57 H          -3.243973   -1.907334   -1.214011 H         1 UNL        0.0599 ****
 58 H          -4.513617   -1.937917    0.012659 H         1 UNL        0.0599 ****
 59 H          -2.827858   -2.098048    0.495299 H         1 UNL        0.0599 ****
 60 C          -5.773756    1.099666   -0.032385 C         1 UNL        0.1115 ****
 61 H          -5.392731    1.804763    0.719257 H         1 UNL       -0.0301 ****
 62 H          -6.439069    1.688610   -0.676810 H         1 UNL       -0.0301 ****
 63 C          -6.597607    0.022924    0.698498 C         1 UNL       -0.1083 ****
 64 H          -7.307359    0.528804    1.369823 H         1 UNL        0.0005 ****
 65 H          -5.934015   -0.557056    1.354216 H         1 UNL        0.0005 ****
 66 C          -7.397916   -0.955939   -0.187627 C         1 UNL        0.4195 ****
 67 H          -6.702148   -1.438860   -0.888526 H         1 UNL       -0.0868 ****
 68 C          -8.479089   -0.245916   -1.018600 C         1 UNL       -0.2897 ****
 69 H          -9.195393    0.269765   -0.365693 H         1 UNL        0.0539 ****
 70 H          -9.041312   -0.965541   -1.624538 H         1 UNL        0.0539 ****
 71 H          -8.055362    0.497475   -1.701260 H         1 UNL        0.0539 ****
 72 C          -8.025626   -2.062039    0.675953 C         1 UNL       -0.2911 ****
 73 H          -8.732583   -1.637779    1.400571 H         1 UNL        0.0548 ****
 74 H          -8.574257   -2.784849    0.061321 H         1 UNL        0.0548 ****
 75 H          -7.262789   -2.611543    1.239627 H         1 UNL        0.0548 ****
@<TRIPOS>BOND
    1     1     2 1
    2     1    27 1
    3     3     4 1
    4     3    54 1
    5     5     6 1
    6     5    12 1
    7     5    14 1
    8     5    31 1
    9     6     7 1
   10     6     8 1
   11     6    18 1
   12     8     9 1
   13     8    10 1
   14     8    27 1
   15    10    11 1
   16    10    17 1
   17    10    21 1
   18    12    13 1
   19    12    24 1
   20    12    29 1
   21    14    15 1
   22    14    16 1
   23    14    21 1
   24    17    35 1
   25    17    36 1
   26    17    41 1
   27    18    19 1
   28    18    20 1
   29    18    24 1
   30    21    22 1
   31    21    23 1
   32    24    25 1
   33    24    26 1
   34    27    28 1
   35    27    39 1
   36    29    30 1
   37    29    51 1
   38    29    56 1
   39    31    32 1
   40    31    33 1
   41    31    34 1
   42    35    39 1
   43    35    45 1
   44    36    37 1
   45    36    38 1
   46    36    48 1
   47    39    40 1
   48    41    42 1
   49    41    43 1
   50    41    44 1
   51    45    46 1
   52    45    47 1
   53    45    54 1
   54    48    49 1
   55    48    50 1
   56    48    54 1
   57    51    52 1
   58    51    53 1
   59    51    60 1
   60    54    55 1
   61    56    57 1
   62    56    58 1
   63    56    59 1
   64    60    61 1
   65    60    62 1
   66    60    63 1
   67    63    64 1
   68    63    65 1
   69    63    66 1
   70    66    67 1
   71    66    68 1
   72    66    72 1
   73    68    69 1
   74    68    70 1
   75    68    71 1
   76    72    73 1
   77    72    74 1
   78    72    75 1
@<TRIPOS>SUBSTRUCTURE
      1  UNL              1 ****               0 ****  ****  


