@<TRIPOS>MOLECULE
UNL
   75    78     1     0     1
SMALL
USER_CHARGES
@<TRIPOS>ATOM
  1 O           2.178375    3.324227    0.325080 O         1 UNL       -0.7559 ****
  2 H           2.687020    3.325570    1.148239 H         1 UNL        0.4126 ****
  3 O           7.979011   -0.545659   -1.321061 O         1 UNL       -0.7391 ****
  4 H           8.338018   -0.717423   -0.439146 H         1 UNL        0.4076 ****
  5 C          -0.629898   -0.258392    0.661784 C         1 UNL        0.4651 ****
  6 C           0.188082    0.913683    0.044824 C         1 UNL        0.1166 ****
  7 H           0.107968    0.771601   -1.047108 H         1 UNL       -0.0541 ****
  8 C           1.697344    0.894769    0.346744 C         1 UNL       -0.0726 ****
  9 H           1.858505    1.009087    1.428844 H         1 UNL       -0.0082 ****
 10 C           2.305722   -0.455052   -0.125786 C         1 UNL       -0.0434 ****
 11 H           2.216141   -0.452452   -1.224649 H         1 UNL       -0.0540 ****
 12 C          -2.067287    0.111034    0.152218 C         1 UNL       -0.0698 ****
 13 H          -2.083775   -0.146793   -0.918896 H         1 UNL       -0.0260 ****
 14 C          -0.025709   -1.561628    0.101771 C         1 UNL       -0.2163 ****
 15 H          -0.197662   -1.590418   -0.983979 H         1 UNL        0.0164 ****
 16 H          -0.514624   -2.448534    0.516598 H         1 UNL        0.0164 ****
 17 C           3.840949   -0.581152    0.169969 C         1 UNL        0.3346 ****
 18 C          -0.637713    2.165291    0.379440 C         1 UNL       -0.1078 ****
 19 H          -0.421765    3.000149   -0.291157 H         1 UNL        0.0187 ****
 20 H          -0.408241    2.520631    1.389626 H         1 UNL        0.0187 ****
 21 C           1.485546   -1.662104    0.383593 C         1 UNL        0.1016 ****
 22 H           1.633473   -1.781601    1.462385 H         1 UNL       -0.0147 ****
 23 H           1.862664   -2.582471   -0.075929 H         1 UNL       -0.0147 ****
 24 C          -2.105624    1.672562    0.274008 C         1 UNL       -0.0135 ****
 25 H          -2.682296    1.972813    1.157310 H         1 UNL        0.0032 ****
 26 H          -2.610944    2.118271   -0.588239 H         1 UNL        0.0032 ****
 27 C           2.419332    2.069253   -0.342200 C         1 UNL        0.6475 ****
 28 H           1.978117    2.223609   -1.337172 H         1 UNL       -0.0227 ****
 29 C          -3.307870   -0.566579    0.790990 C         1 UNL        0.2665 ****
 30 H          -3.347124   -0.265649    1.849262 H         1 UNL       -0.0621 ****
 31 C          -0.589670   -0.253777    2.207264 C         1 UNL       -0.4727 ****
 32 H           0.430512   -0.299538    2.597311 H         1 UNL        0.0907 ****
 33 H          -1.054368    0.644290    2.624741 H         1 UNL        0.0907 ****
 34 H          -1.128185   -1.117201    2.611586 H         1 UNL        0.0907 ****
 35 C           4.557140    0.712021   -0.234395 C         1 UNL       -0.0414 ****
 36 C           4.420481   -1.748046   -0.689673 C         1 UNL       -0.0938 ****
 37 H           4.048188   -1.635080   -1.717237 H         1 UNL        0.0218 ****
 38 H           4.028916   -2.701961   -0.320874 H         1 UNL        0.0218 ****
 39 C           3.899834    1.853471   -0.486495 C         1 UNL       -0.5432 ****
 40 H           4.456564    2.735770   -0.802209 H         1 UNL        0.1904 ****
 41 C           4.117274   -0.857289    1.672239 C         1 UNL       -0.1549 ****
 42 H           3.775375   -1.855146    1.963704 H         1 UNL        0.0175 ****
 43 H           5.184792   -0.803049    1.901007 H         1 UNL        0.0175 ****
 44 H           3.613707   -0.123821    2.309395 H         1 UNL        0.0175 ****
 45 C           6.068723    0.658850   -0.353482 C         1 UNL       -0.1051 ****
 46 H           6.451431    1.605846   -0.746492 H         1 UNL        0.0381 ****
 47 H           6.515896    0.527165    0.645197 H         1 UNL        0.0381 ****
 48 C           5.954619   -1.818940   -0.738317 C         1 UNL       -0.1584 ****
 49 H           6.361450   -2.043920    0.258804 H         1 UNL        0.0366 ****
 50 H           6.270616   -2.635801   -1.397043 H         1 UNL        0.0366 ****
 51 C          -4.604077   -0.044758    0.121419 C         1 UNL       -0.0656 ****
 52 H          -4.573411    1.050239    0.079241 H         1 UNL       -0.0054 ****
 53 H          -4.616954   -0.388911   -0.923003 H         1 UNL       -0.0054 ****
 54 C           6.552215   -0.502618   -1.234511 C         1 UNL        0.4726 ****
 55 H           6.226253   -0.326147   -2.266824 H         1 UNL        0.0069 ****
 56 C          -3.261443   -2.103852    0.736581 C         1 UNL       -0.2971 ****
 57 H          -3.144324   -2.456314   -0.296116 H         1 UNL        0.0599 ****
 58 H          -4.182064   -2.541668    1.133644 H         1 UNL        0.0599 ****
 59 H          -2.436650   -2.513613    1.323604 H         1 UNL        0.0599 ****
 60 C          -5.911442   -0.447810    0.824782 C         1 UNL        0.1115 ****
 61 H          -6.066834   -1.530854    0.760032 H         1 UNL       -0.0301 ****
 62 H          -5.815951   -0.222338    1.896525 H         1 UNL       -0.0301 ****
 63 C          -7.160670    0.281551    0.296493 C         1 UNL       -0.1083 ****
 64 H          -7.021064    1.362750    0.440483 H         1 UNL        0.0005 ****
 65 H          -8.021797    0.001283    0.921288 H         1 UNL        0.0005 ****
 66 C          -7.536313    0.032290   -1.179886 C         1 UNL        0.4195 ****
 67 H          -6.683437    0.329705   -1.806742 H         1 UNL       -0.0868 ****
 68 C          -8.730335    0.914105   -1.579178 C         1 UNL       -0.2897 ****
 69 H          -9.619311    0.659997   -0.987502 H         1 UNL        0.0539 ****
 70 H          -8.986786    0.782554   -2.636621 H         1 UNL        0.0539 ****
 71 H          -8.514882    1.976326   -1.415871 H         1 UNL        0.0539 ****
 72 C          -7.839234   -1.446957   -1.466813 C         1 UNL       -0.2911 ****
 73 H          -8.671454   -1.801788   -0.844829 H         1 UNL        0.0548 ****
 74 H          -8.123833   -1.591693   -2.515252 H         1 UNL        0.0548 ****
 75 H          -6.976808   -2.091580   -1.268390 H         1 UNL        0.0548 ****
@<TRIPOS>BOND
    1     1     2 1
    2     1    27 1
    3     3     4 1
    4     3    54 1
    5     5     6 1
    6     5    12 1
    7     5    14 1
    8     5    31 1
    9     6     7 1
   10     6     8 1
   11     6    18 1
   12     8     9 1
   13     8    10 1
   14     8    27 1
   15    10    11 1
   16    10    17 1
   17    10    21 1
   18    12    13 1
   19    12    24 1
   20    12    29 1
   21    14    15 1
   22    14    16 1
   23    14    21 1
   24    17    35 1
   25    17    36 1
   26    17    41 1
   27    18    19 1
   28    18    20 1
   29    18    24 1
   30    21    22 1
   31    21    23 1
   32    24    25 1
   33    24    26 1
   34    27    28 1
   35    27    39 1
   36    29    30 1
   37    29    51 1
   38    29    56 1
   39    31    32 1
   40    31    33 1
   41    31    34 1
   42    35    39 1
   43    35    45 1
   44    36    37 1
   45    36    38 1
   46    36    48 1
   47    39    40 1
   48    41    42 1
   49    41    43 1
   50    41    44 1
   51    45    46 1
   52    45    47 1
   53    45    54 1
   54    48    49 1
   55    48    50 1
   56    48    54 1
   57    51    52 1
   58    51    53 1
   59    51    60 1
   60    54    55 1
   61    56    57 1
   62    56    58 1
   63    56    59 1
   64    60    61 1
   65    60    62 1
   66    60    63 1
   67    63    64 1
   68    63    65 1
   69    63    66 1
   70    66    67 1
   71    66    68 1
   72    66    72 1
   73    68    69 1
   74    68    70 1
   75    68    71 1
   76    72    73 1
   77    72    74 1
   78    72    75 1
@<TRIPOS>SUBSTRUCTURE
      1  UNL              1 ****               0 ****  ****  


