@<TRIPOS>MOLECULE
UNL
   75    78     1     0     1
SMALL
USER_CHARGES
@<TRIPOS>ATOM
  1 O          -2.239210   -2.584176   -2.269239 O         1 UNL       -0.7559 ****
  2 H          -2.861814   -3.088843   -1.727030 H         1 UNL        0.4126 ****
  3 O          -7.100376    2.330337   -0.386267 O         1 UNL       -0.7391 ****
  4 H          -7.560855    1.868933    0.328735 H         1 UNL        0.4076 ****
  5 C           0.966291   -1.120940    0.637300 C         1 UNL        0.4651 ****
  6 C           0.092234   -1.263951   -0.645017 C         1 UNL        0.1166 ****
  7 H           0.357075   -0.394113   -1.270298 H         1 UNL       -0.0541 ****
  8 C          -1.426350   -1.149019   -0.422025 C         1 UNL       -0.0726 ****
  9 H          -1.774454   -1.984161    0.203075 H         1 UNL       -0.0082 ****
 10 C          -1.749777    0.196831    0.287695 C         1 UNL       -0.0434 ****
 11 H          -1.493901    0.984417   -0.440245 H         1 UNL       -0.0540 ****
 12 C           2.385337   -1.277543   -0.012195 C         1 UNL       -0.0698 ****
 13 H           2.508071   -0.365163   -0.612477 H         1 UNL       -0.0260 ****
 14 C           0.653643    0.258067    1.246543 C         1 UNL       -0.2163 ****
 15 H           0.984401    1.040490    0.549213 H         1 UNL        0.0164 ****
 16 H           1.205687    0.416217    2.180551 H         1 UNL        0.0164 ****
 17 C          -3.277698    0.384907    0.589721 C         1 UNL        0.3346 ****
 18 C           0.669374   -2.503261   -1.355194 C         1 UNL       -0.1078 ****
 19 H           0.459257   -2.502304   -2.427182 H         1 UNL        0.0187 ****
 20 H           0.218570   -3.419119   -0.958522 H         1 UNL        0.0187 ****
 21 C          -0.851619    0.429876    1.525290 C         1 UNL        0.1016 ****
 22 H          -1.141069   -0.255325    2.329157 H         1 UNL       -0.0147 ****
 23 H          -1.019727    1.440103    1.914523 H         1 UNL       -0.0147 ****
 24 C           2.189618   -2.439767   -1.036303 C         1 UNL       -0.0135 ****
 25 H           2.539813   -3.392898   -0.626734 H         1 UNL        0.0032 ****
 26 H           2.788473   -2.256094   -1.935366 H         1 UNL        0.0032 ****
 27 C          -2.193858   -1.238220   -1.755419 C         1 UNL        0.6475 ****
 28 H          -1.632002   -0.692430   -2.526726 H         1 UNL       -0.0227 ****
 29 C           3.709023   -1.399053    0.796539 C         1 UNL        0.2665 ****
 30 H           4.470997   -1.555846    0.017965 H         1 UNL       -0.0621 ****
 31 C           0.662729   -2.237272    1.663824 C         1 UNL       -0.4727 ****
 32 H          -0.407126   -2.323794    1.871053 H         1 UNL        0.0907 ****
 33 H           1.003264   -3.217418    1.321213 H         1 UNL        0.0907 ****
 34 H           1.157191   -2.031126    2.617493 H         1 UNL        0.0907 ****
 35 C          -4.104068    0.001027   -0.642798 C         1 UNL       -0.0414 ****
 36 C          -3.543219    1.890939    0.903068 C         1 UNL       -0.0938 ****
 37 H          -3.038375    2.495173    0.136699 H         1 UNL        0.0218 ****
 38 H          -3.078762    2.151926    1.859815 H         1 UNL        0.0218 ****
 39 C          -3.588516   -0.683733   -1.674205 C         1 UNL       -0.5432 ****
 40 H          -4.212758   -0.900877   -2.540943 H         1 UNL        0.1904 ****
 41 C          -3.737437   -0.483514    1.791326 C         1 UNL       -0.1549 ****
 42 H          -3.302109   -0.127592    2.730124 H         1 UNL        0.0175 ****
 43 H          -4.823690   -0.461125    1.911253 H         1 UNL        0.0175 ****
 44 H          -3.449862   -1.530757    1.656807 H         1 UNL        0.0175 ****
 45 C          -5.556040    0.440174   -0.667601 C         1 UNL       -0.1051 ****
 46 H          -6.008307    0.199257   -1.634612 H         1 UNL        0.0381 ****
 47 H          -6.125854   -0.114959    0.095133 H         1 UNL        0.0381 ****
 48 C          -5.025075    2.295911    0.936870 C         1 UNL       -0.1584 ****
 49 H          -5.542456    1.794057    1.768046 H         1 UNL        0.0366 ****
 50 H          -5.114254    3.373178    1.117390 H         1 UNL        0.0366 ****
 51 C           4.117695   -0.118687    1.566073 C         1 UNL       -0.0656 ****
 52 H           3.382027    0.072648    2.357736 H         1 UNL       -0.0054 ****
 53 H           5.060566   -0.336577    2.088540 H         1 UNL       -0.0054 ****
 54 C          -5.725196    1.938163   -0.373759 C         1 UNL        0.4726 ****
 55 H          -5.274687    2.514251   -1.191205 H         1 UNL        0.0069 ****
 56 C           3.837271   -2.607962    1.745572 C         1 UNL       -0.2971 ****
 57 H           3.279887   -2.463186    2.675760 H         1 UNL        0.0599 ****
 58 H           4.889163   -2.749556    2.018819 H         1 UNL        0.0599 ****
 59 H           3.492053   -3.540776    1.290429 H         1 UNL        0.0599 ****
 60 C           4.318916    1.174607    0.752780 C         1 UNL        0.1115 ****
 61 H           3.385509    1.460728    0.251130 H         1 UNL       -0.0301 ****
 62 H           4.531328    1.979797    1.467003 H         1 UNL       -0.0301 ****
 63 C           5.447822    1.104711   -0.287148 C         1 UNL       -0.1083 ****
 64 H           5.231654    0.300518   -1.002526 H         1 UNL        0.0005 ****
 65 H           6.386366    0.820726    0.214122 H         1 UNL        0.0005 ****
 66 C           5.684535    2.403235   -1.086939 C         1 UNL        0.4195 ****
 67 H           4.721016    2.701136   -1.529072 H         1 UNL       -0.0868 ****
 68 C           6.670225    2.153434   -2.239602 C         1 UNL       -0.2897 ****
 69 H           7.651082    1.846076   -1.854604 H         1 UNL        0.0539 ****
 70 H           6.818794    3.058181   -2.840046 H         1 UNL        0.0539 ****
 71 H           6.312263    1.361878   -2.907849 H         1 UNL        0.0539 ****
 72 C           6.176382    3.562277   -0.204549 C         1 UNL       -0.2911 ****
 73 H           7.127999    3.304797    0.278634 H         1 UNL        0.0548 ****
 74 H           6.342613    4.465388   -0.802805 H         1 UNL        0.0548 ****
 75 H           5.460196    3.817468    0.582784 H         1 UNL        0.0548 ****
@<TRIPOS>BOND
    1     1     2 1
    2     1    27 1
    3     3     4 1
    4     3    54 1
    5     5     6 1
    6     5    12 1
    7     5    14 1
    8     5    31 1
    9     6     7 1
   10     6     8 1
   11     6    18 1
   12     8     9 1
   13     8    10 1
   14     8    27 1
   15    10    11 1
   16    10    17 1
   17    10    21 1
   18    12    13 1
   19    12    24 1
   20    12    29 1
   21    14    15 1
   22    14    16 1
   23    14    21 1
   24    17    35 1
   25    17    36 1
   26    17    41 1
   27    18    19 1
   28    18    20 1
   29    18    24 1
   30    21    22 1
   31    21    23 1
   32    24    25 1
   33    24    26 1
   34    27    28 1
   35    27    39 1
   36    29    30 1
   37    29    51 1
   38    29    56 1
   39    31    32 1
   40    31    33 1
   41    31    34 1
   42    35    39 1
   43    35    45 1
   44    36    37 1
   45    36    38 1
   46    36    48 1
   47    39    40 1
   48    41    42 1
   49    41    43 1
   50    41    44 1
   51    45    46 1
   52    45    47 1
   53    45    54 1
   54    48    49 1
   55    48    50 1
   56    48    54 1
   57    51    52 1
   58    51    53 1
   59    51    60 1
   60    54    55 1
   61    56    57 1
   62    56    58 1
   63    56    59 1
   64    60    61 1
   65    60    62 1
   66    60    63 1
   67    63    64 1
   68    63    65 1
   69    63    66 1
   70    66    67 1
   71    66    68 1
   72    66    72 1
   73    68    69 1
   74    68    70 1
   75    68    71 1
   76    72    73 1
   77    72    74 1
   78    72    75 1
@<TRIPOS>SUBSTRUCTURE
      1  UNL              1 ****               0 ****  ****  


