@<TRIPOS>MOLECULE
UNL
   75    78     1     0     1
SMALL
USER_CHARGES
@<TRIPOS>ATOM
  1 O           1.850796    3.229768    0.581079 O         1 UNL       -0.7559 ****
  2 H           2.304913    3.195022    1.434827 H         1 UNL        0.4126 ****
  3 O           8.068810    0.037638   -0.991650 O         1 UNL       -0.7391 ****
  4 H           8.385239   -0.190158   -0.106131 H         1 UNL        0.4076 ****
  5 C          -0.637639   -0.591796    0.395922 C         1 UNL        0.4651 ****
  6 C           0.107237    0.698961   -0.053859 C         1 UNL        0.1166 ****
  7 H           0.106980    0.657278   -1.157116 H         1 UNL       -0.0541 ****
  8 C           1.590731    0.777641    0.349388 C         1 UNL       -0.0726 ****
  9 H           1.673903    0.800201    1.445984 H         1 UNL       -0.0082 ****
 10 C           2.346094   -0.464627   -0.199833 C         1 UNL       -0.0434 ****
 11 H           2.324831   -0.363674   -1.297492 H         1 UNL       -0.0540 ****
 12 C          -2.069072   -0.297485   -0.175536 C         1 UNL       -0.0698 ****
 13 H          -1.997994   -0.450950   -1.264333 H         1 UNL       -0.0260 ****
 14 C           0.114329   -1.780039   -0.236130 C         1 UNL       -0.2163 ****
 15 H           0.012472   -1.718934   -1.329369 H         1 UNL        0.0164 ****
 16 H          -0.317685   -2.740198    0.062425 H         1 UNL        0.0164 ****
 17 C           3.865083   -0.489959    0.190345 C         1 UNL        0.3346 ****
 18 C          -0.847051    1.838135    0.336367 C         1 UNL       -0.1078 ****
 19 H          -0.667249    2.749503   -0.238400 H         1 UNL        0.0187 ****
 20 H          -0.712220    2.111584    1.388217 H         1 UNL        0.0187 ****
 21 C           1.608201   -1.779752    0.139725 C         1 UNL        0.1016 ****
 22 H           1.699815   -1.989625    1.210927 H         1 UNL       -0.0147 ****
 23 H           2.094336   -2.616718   -0.373766 H         1 UNL       -0.0147 ****
 24 C          -2.255387    1.236225    0.085086 C         1 UNL       -0.0135 ****
 25 H          -2.910337    1.400475    0.949352 H         1 UNL        0.0032 ****
 26 H          -2.743465    1.719911   -0.766534 H         1 UNL        0.0032 ****
 27 C           2.245472    2.069367   -0.177872 C         1 UNL        0.6475 ****
 28 H           1.855579    2.280971   -1.183691 H         1 UNL       -0.0227 ****
 29 C          -3.277501   -1.138134    0.313528 C         1 UNL        0.2665 ****
 30 H          -3.406197   -0.944716    1.389528 H         1 UNL       -0.0621 ****
 31 C          -0.691699   -0.731943    1.934790 C         1 UNL       -0.4727 ****
 32 H           0.302789   -0.725051    2.388600 H         1 UNL        0.0907 ****
 33 H          -1.262846    0.077671    2.398544 H         1 UNL        0.0907 ****
 34 H          -1.170192   -1.673971    2.221907 H         1 UNL        0.0907 ****
 35 C           4.485732    0.892002   -0.041368 C         1 UNL       -0.0414 ****
 36 C           4.599920   -1.513731   -0.730698 C         1 UNL       -0.0938 ****
 37 H           4.284354   -1.330987   -1.767179 H         1 UNL        0.0218 ****
 38 H           4.273145   -2.528750   -0.481264 H         1 UNL        0.0218 ****
 39 C           3.745521    1.993407   -0.235031 C         1 UNL       -0.5432 ****
 40 H           4.239356    2.945693   -0.428285 H         1 UNL        0.1904 ****
 41 C           4.071052   -0.888240    1.676431 C         1 UNL       -0.1549 ****
 42 H           3.806553   -1.936004    1.849162 H         1 UNL        0.0175 ****
 43 H           5.112210   -0.764078    1.985366 H         1 UNL        0.0175 ****
 44 H           3.461889   -0.268106    2.341185 H         1 UNL        0.0175 ****
 45 C           6.000426    0.977538   -0.056295 C         1 UNL       -0.1051 ****
 46 H           6.320353    1.987235   -0.331732 H         1 UNL        0.0381 ****
 47 H           6.393570    0.786184    0.955400 H         1 UNL        0.0381 ****
 48 C           6.134230   -1.451257   -0.676129 C         1 UNL       -0.1584 ****
 49 H           6.495988   -1.738811    0.322289 H         1 UNL        0.0366 ****
 50 H           6.563262   -2.169916   -1.383588 H         1 UNL        0.0366 ****
 51 C          -4.577905   -0.674902   -0.392781 C         1 UNL       -0.0656 ****
 52 H          -4.597108    0.418312   -0.431152 H         1 UNL       -0.0054 ****
 53 H          -4.550125   -1.015355   -1.439768 H         1 UNL       -0.0054 ****
 54 C           6.641320   -0.047194   -1.004051 C         1 UNL        0.4726 ****
 55 H           6.366973    0.202348   -2.036294 H         1 UNL        0.0069 ****
 56 C          -3.081675   -2.652830    0.120739 C         1 UNL       -0.2971 ****
 57 H          -2.831251   -2.884208   -0.922159 H         1 UNL        0.0599 ****
 58 H          -3.991680   -3.206047    0.371801 H         1 UNL        0.0599 ****
 59 H          -2.284112   -3.051921    0.751578 H         1 UNL        0.0599 ****
 60 C          -5.880661   -1.159617    0.264590 C         1 UNL        0.1115 ****
 61 H          -5.873220   -2.253031    0.348492 H         1 UNL       -0.0301 ****
 62 H          -5.923850   -0.782370    1.295415 H         1 UNL       -0.0301 ****
 63 C          -7.161271   -0.763445   -0.494285 C         1 UNL       -0.1083 ****
 64 H          -8.021807   -1.238470    0.000003 H         1 UNL        0.0005 ****
 65 H          -7.115675   -1.197496   -1.503672 H         1 UNL        0.0005 ****
 66 C          -7.458879    0.745606   -0.626574 C         1 UNL        0.4195 ****
 67 H          -6.610599    1.222082   -1.138320 H         1 UNL       -0.0868 ****
 68 C          -7.632265    1.431222    0.737936 C         1 UNL       -0.2897 ****
 69 H          -8.456639    0.974385    1.301039 H         1 UNL        0.0539 ****
 70 H          -7.864387    2.495171    0.614572 H         1 UNL        0.0539 ****
 71 H          -6.729673    1.361128    1.353575 H         1 UNL        0.0539 ****
 72 C          -8.703792    0.964367   -1.501397 C         1 UNL       -0.2911 ****
 73 H          -9.591123    0.513118   -1.038835 H         1 UNL        0.0548 ****
 74 H          -8.909310    2.031711   -1.641952 H         1 UNL        0.0548 ****
 75 H          -8.579924    0.513176   -2.492632 H         1 UNL        0.0548 ****
@<TRIPOS>BOND
    1     1     2 1
    2     1    27 1
    3     3     4 1
    4     3    54 1
    5     5     6 1
    6     5    12 1
    7     5    14 1
    8     5    31 1
    9     6     7 1
   10     6     8 1
   11     6    18 1
   12     8     9 1
   13     8    10 1
   14     8    27 1
   15    10    11 1
   16    10    17 1
   17    10    21 1
   18    12    13 1
   19    12    24 1
   20    12    29 1
   21    14    15 1
   22    14    16 1
   23    14    21 1
   24    17    35 1
   25    17    36 1
   26    17    41 1
   27    18    19 1
   28    18    20 1
   29    18    24 1
   30    21    22 1
   31    21    23 1
   32    24    25 1
   33    24    26 1
   34    27    28 1
   35    27    39 1
   36    29    30 1
   37    29    51 1
   38    29    56 1
   39    31    32 1
   40    31    33 1
   41    31    34 1
   42    35    39 1
   43    35    45 1
   44    36    37 1
   45    36    38 1
   46    36    48 1
   47    39    40 1
   48    41    42 1
   49    41    43 1
   50    41    44 1
   51    45    46 1
   52    45    47 1
   53    45    54 1
   54    48    49 1
   55    48    50 1
   56    48    54 1
   57    51    52 1
   58    51    53 1
   59    51    60 1
   60    54    55 1
   61    56    57 1
   62    56    58 1
   63    56    59 1
   64    60    61 1
   65    60    62 1
   66    60    63 1
   67    63    64 1
   68    63    65 1
   69    63    66 1
   70    66    67 1
   71    66    68 1
   72    66    72 1
   73    68    69 1
   74    68    70 1
   75    68    71 1
   76    72    73 1
   77    72    74 1
   78    72    75 1
@<TRIPOS>SUBSTRUCTURE
      1  UNL              1 ****               0 ****  ****  


