@<TRIPOS>MOLECULE
UNL
   75    78     1     0     1
SMALL
USER_CHARGES
@<TRIPOS>ATOM
  1 O           2.306507    3.184123   -1.257533 O         1 UNL       -0.7559 ****
  2 H           2.871357    3.495161   -0.536063 H         1 UNL        0.4126 ****
  3 O           7.391676   -1.848845   -0.880620 O         1 UNL       -0.7391 ****
  4 H           7.788067   -1.643826   -0.022130 H         1 UNL        0.4076 ****
  5 C          -0.921492    0.651988    0.751120 C         1 UNL        0.4651 ****
  6 C          -0.003609    1.274765   -0.343507 C         1 UNL        0.1166 ****
  7 H          -0.183995    0.668194   -1.247515 H         1 UNL       -0.0541 ****
  8 C           1.507918    1.158143   -0.078056 C         1 UNL       -0.0726 ****
  9 H           1.773195    1.736832    0.818641 H         1 UNL       -0.0082 ****
 10 C           1.887056   -0.334569    0.139706 C         1 UNL       -0.0434 ****
 11 H           1.716816   -0.827995   -0.831474 H         1 UNL       -0.0540 ****
 12 C          -2.318128    0.962232    0.108176 C         1 UNL       -0.0698 ****
 13 H          -2.355339    0.313684   -0.778116 H         1 UNL       -0.0260 ****
 14 C          -0.547659   -0.837520    0.860902 C         1 UNL       -0.2163 ****
 15 H          -0.796330   -1.339060   -0.084896 H         1 UNL        0.0164 ****
 16 H          -1.128831   -1.338366    1.644219 H         1 UNL        0.0164 ****
 17 C           3.409026   -0.545423    0.456637 C         1 UNL        0.3346 ****
 18 C          -0.627915    2.656959   -0.614054 C         1 UNL       -0.1078 ****
 19 H          -0.371908    3.040592   -1.604281 H         1 UNL        0.0187 ****
 20 H          -0.254402    3.395353    0.103319 H         1 UNL        0.0187 ****
 21 C           0.951770   -1.028672    1.157809 C         1 UNL        0.1016 ****
 22 H           1.160641   -0.658835    2.167327 H         1 UNL       -0.0147 ****
 23 H           1.167257   -2.102637    1.179293 H         1 UNL       -0.0147 ****
 24 C          -2.153315    2.417393   -0.433246 C         1 UNL       -0.0135 ****
 25 H          -2.581184    3.149508    0.259487 H         1 UNL        0.0032 ****
 26 H          -2.699815    2.534069   -1.375796 H         1 UNL        0.0032 ****
 27 C           2.326146    1.742875   -1.245944 C         1 UNL        0.6475 ****
 28 H           1.835684    1.476105   -2.192935 H         1 UNL       -0.0227 ****
 29 C          -3.680822    0.732492    0.823470 C         1 UNL        0.2665 ****
 30 H          -4.416143    1.121395    0.102204 H         1 UNL       -0.0621 ****
 31 C          -0.734387    1.349650    2.118782 C         1 UNL       -0.4727 ****
 32 H           0.317894    1.406555    2.409282 H         1 UNL        0.0907 ****
 33 H          -1.122400    2.371161    2.118246 H         1 UNL        0.0907 ****
 34 H          -1.254390    0.799772    2.908528 H         1 UNL        0.0907 ****
 35 C           4.262310    0.282042   -0.511007 C         1 UNL       -0.0414 ****
 36 C           3.758951   -2.052123    0.246820 C         1 UNL       -0.0938 ****
 37 H           3.330008   -2.373831   -0.712242 H         1 UNL        0.0218 ****
 38 H           3.270298   -2.651504    1.022136 H         1 UNL        0.0218 ****
 39 C           3.749059    1.259355   -1.272561 C         1 UNL       -0.5432 ****
 40 H           4.395388    1.793874   -1.968712 H         1 UNL        0.1904 ****
 41 C           3.756171   -0.130107    1.911422 C         1 UNL       -0.1549 ****
 42 H           3.304406   -0.811250    2.639083 H         1 UNL        0.0175 ****
 43 H           4.835100   -0.141499    2.086383 H         1 UNL        0.0175 ****
 44 H           3.405608    0.883474    2.128784 H         1 UNL        0.0175 ****
 45 C           5.739720   -0.053160   -0.592351 C         1 UNL       -0.1051 ****
 46 H           6.217523    0.530242   -1.385476 H         1 UNL        0.0381 ****
 47 H           6.237234    0.227538    0.350168 H         1 UNL        0.0381 ****
 48 C           5.261370   -2.374124    0.235094 C         1 UNL       -0.1584 ****
 49 H           5.706338   -2.169548    1.220229 H         1 UNL        0.0366 ****
 50 H           5.413590   -3.441419    0.038249 H         1 UNL        0.0366 ****
 51 C          -4.043328   -0.753386    1.064761 C         1 UNL       -0.0656 ****
 52 H          -3.326785   -1.188602    1.772978 H         1 UNL       -0.0054 ****
 53 H          -5.010850   -0.774478    1.584516 H         1 UNL       -0.0054 ****
 54 C           5.994358   -1.550122   -0.823083 C         1 UNL        0.4726 ****
 55 H           5.620093   -1.825811   -1.816542 H         1 UNL        0.0069 ****
 56 C          -3.925310    1.521284    2.125960 C         1 UNL       -0.2971 ****
 57 H          -3.400848    1.081031    2.979155 H         1 UNL        0.0599 ****
 58 H          -4.994798    1.512002    2.365485 H         1 UNL        0.0599 ****
 59 H          -3.619442    2.568678    2.049332 H         1 UNL        0.0599 ****
 60 C          -4.129638   -1.671996   -0.169862 C         1 UNL        0.1115 ****
 61 H          -3.141867   -1.759590   -0.637715 H         1 UNL       -0.0301 ****
 62 H          -4.373877   -2.683451    0.179580 H         1 UNL       -0.0301 ****
 63 C          -5.136981   -1.251418   -1.257388 C         1 UNL       -0.1083 ****
 64 H          -5.079879   -1.981072   -2.078777 H         1 UNL        0.0005 ****
 65 H          -4.823272   -0.292347   -1.691156 H         1 UNL        0.0005 ****
 66 C          -6.613222   -1.128927   -0.824093 C         1 UNL        0.4195 ****
 67 H          -6.674572   -0.387645   -0.014141 H         1 UNL       -0.0868 ****
 68 C          -7.181361   -2.454399   -0.292228 C         1 UNL       -0.2897 ****
 69 H          -7.121259   -3.238478   -1.058338 H         1 UNL        0.0539 ****
 70 H          -8.235351   -2.344159   -0.012842 H         1 UNL        0.0539 ****
 71 H          -6.642376   -2.810485    0.591660 H         1 UNL        0.0539 ****
 72 C          -7.467026   -0.606224   -1.990643 C         1 UNL       -0.2911 ****
 73 H          -7.451095   -1.310046   -2.832778 H         1 UNL        0.0548 ****
 74 H          -8.512443   -0.471766   -1.690258 H         1 UNL        0.0548 ****
 75 H          -7.096473    0.358207   -2.356684 H         1 UNL        0.0548 ****
@<TRIPOS>BOND
    1     1     2 1
    2     1    27 1
    3     3     4 1
    4     3    54 1
    5     5     6 1
    6     5    12 1
    7     5    14 1
    8     5    31 1
    9     6     7 1
   10     6     8 1
   11     6    18 1
   12     8     9 1
   13     8    10 1
   14     8    27 1
   15    10    11 1
   16    10    17 1
   17    10    21 1
   18    12    13 1
   19    12    24 1
   20    12    29 1
   21    14    15 1
   22    14    16 1
   23    14    21 1
   24    17    35 1
   25    17    36 1
   26    17    41 1
   27    18    19 1
   28    18    20 1
   29    18    24 1
   30    21    22 1
   31    21    23 1
   32    24    25 1
   33    24    26 1
   34    27    28 1
   35    27    39 1
   36    29    30 1
   37    29    51 1
   38    29    56 1
   39    31    32 1
   40    31    33 1
   41    31    34 1
   42    35    39 1
   43    35    45 1
   44    36    37 1
   45    36    38 1
   46    36    48 1
   47    39    40 1
   48    41    42 1
   49    41    43 1
   50    41    44 1
   51    45    46 1
   52    45    47 1
   53    45    54 1
   54    48    49 1
   55    48    50 1
   56    48    54 1
   57    51    52 1
   58    51    53 1
   59    51    60 1
   60    54    55 1
   61    56    57 1
   62    56    58 1
   63    56    59 1
   64    60    61 1
   65    60    62 1
   66    60    63 1
   67    63    64 1
   68    63    65 1
   69    63    66 1
   70    66    67 1
   71    66    68 1
   72    66    72 1
   73    68    69 1
   74    68    70 1
   75    68    71 1
   76    72    73 1
   77    72    74 1
   78    72    75 1
@<TRIPOS>SUBSTRUCTURE
      1  UNL              1 ****               0 ****  ****  


