@<TRIPOS>MOLECULE
UNL
   75    78     1     0     1
SMALL
USER_CHARGES
@<TRIPOS>ATOM
  1 O           1.973372    3.343909   -0.018400 O         1 UNL       -0.7559 ****
  2 H           2.585116    3.457594    0.722651 H         1 UNL        0.4126 ****
  3 O           7.535981   -0.788383   -1.840255 O         1 UNL       -0.7391 ****
  4 H           8.008554   -0.839860   -0.997529 H         1 UNL        0.4076 ****
  5 C          -0.736578   -0.121792    1.194112 C         1 UNL        0.4651 ****
  6 C          -0.017789    0.942475    0.314958 C         1 UNL        0.1166 ****
  7 H          -0.240255    0.647351   -0.725296 H         1 UNL       -0.0541 ****
  8 C           1.518153    0.948189    0.414242 C         1 UNL       -0.0726 ****
  9 H           1.820873    1.212772    1.438168 H         1 UNL       -0.0082 ****
 10 C           2.067635   -0.462486    0.061436 C         1 UNL       -0.0434 ****
 11 H           1.834781   -0.612930   -1.005659 H         1 UNL       -0.0540 ****
 12 C          -2.229648    0.191950    0.831952 C         1 UNL       -0.0698 ****
 13 H          -2.373395   -0.195317   -0.187698 H         1 UNL       -0.0260 ****
 14 C          -0.206075   -1.498372    0.748414 C         1 UNL       -0.2163 ****
 15 H          -0.521440   -1.678282   -0.289571 H         1 UNL        0.0164 ****
 16 H          -0.631033   -2.310152    1.347431 H         1 UNL        0.0164 ****
 17 C           3.629324   -0.563924    0.168760 C         1 UNL        0.3346 ****
 18 C          -0.802178    2.239493    0.573659 C         1 UNL       -0.1078 ****
 19 H          -0.697006    2.958821   -0.241805 H         1 UNL        0.0187 ****
 20 H          -0.430334    2.743798    1.471802 H         1 UNL        0.0187 ****
 21 C           1.329995   -1.577414    0.837952 C         1 UNL        0.1016 ****
 22 H           1.621105   -1.548329    1.893497 H         1 UNL       -0.0147 ****
 23 H           1.648486   -2.556988    0.464509 H         1 UNL       -0.0147 ****
 24 C          -2.264817    1.753785    0.765492 C         1 UNL       -0.0135 ****
 25 H          -2.690605    2.164686    1.688669 H         1 UNL        0.0032 ****
 26 H          -2.912754    2.095261   -0.048288 H         1 UNL        0.0032 ****
 27 C           2.134759    2.003724   -0.524263 C         1 UNL        0.6475 ****
 28 H           1.565988    2.018726   -1.464892 H         1 UNL       -0.0227 ****
 29 C          -3.365871   -0.390494    1.709227 C         1 UNL        0.2665 ****
 30 H          -3.226946    0.002540    2.727058 H         1 UNL       -0.0621 ****
 31 C          -0.489955    0.095460    2.704454 C         1 UNL       -0.4727 ****
 32 H           0.573380    0.088371    2.958011 H         1 UNL        0.0907 ****
 33 H          -0.897735    1.049102    3.052430 H         1 UNL        0.0907 ****
 34 H          -0.966222   -0.697159    3.291363 H         1 UNL        0.0907 ****
 35 C           4.277683    0.650612   -0.504692 C         1 UNL       -0.0414 ****
 36 C           4.099149   -1.847321   -0.585197 C         1 UNL       -0.0938 ****
 37 H           3.594236   -1.876567   -1.560645 H         1 UNL        0.0218 ****
 38 H           3.766361   -2.734796   -0.036727 H         1 UNL        0.0218 ****
 39 C           3.585226    1.752621   -0.828130 C         1 UNL       -0.5432 ****
 40 H           4.089749    2.574732   -1.335743 H         1 UNL        0.1904 ****
 41 C           4.101986   -0.628190    1.645912 C         1 UNL       -0.1549 ****
 42 H           3.808284   -1.570753    2.118016 H         1 UNL        0.0175 ****
 43 H           5.189865   -0.554542    1.723352 H         1 UNL        0.0175 ****
 44 H           3.681011    0.193802    2.232959 H         1 UNL        0.0175 ****
 45 C           5.760966    0.563263   -0.811306 C         1 UNL       -0.1051 ****
 46 H           6.082578    1.440754   -1.380769 H         1 UNL        0.0381 ****
 47 H           6.335935    0.568307    0.128912 H         1 UNL        0.0381 ****
 48 C           5.614042   -1.942461   -0.823848 C         1 UNL       -0.1584 ****
 49 H           6.149877   -2.029504    0.133116 H         1 UNL        0.0366 ****
 50 H           5.846341   -2.847739   -1.396171 H         1 UNL        0.0366 ****
 51 C          -4.766065    0.108473    1.261434 C         1 UNL       -0.0656 ****
 52 H          -5.499539   -0.267558    1.989180 H         1 UNL       -0.0054 ****
 53 H          -4.804573    1.202107    1.339439 H         1 UNL       -0.0054 ****
 54 C           6.132568   -0.716485   -1.574913 C         1 UNL        0.4726 ****
 55 H           5.672944   -0.683359   -2.570252 H         1 UNL        0.0069 ****
 56 C          -3.352622   -1.927699    1.808155 C         1 UNL       -0.2971 ****
 57 H          -3.316224   -2.401338    0.820709 H         1 UNL        0.0599 ****
 58 H          -4.256883   -2.286124    2.314334 H         1 UNL        0.0599 ****
 59 H          -2.495801   -2.294090    2.379308 H         1 UNL        0.0599 ****
 60 C          -5.226308   -0.300486   -0.147959 C         1 UNL        0.1115 ****
 61 H          -4.525740    0.094189   -0.893940 H         1 UNL       -0.0301 ****
 62 H          -5.197841   -1.392669   -0.243105 H         1 UNL       -0.0301 ****
 63 C          -6.644859    0.206423   -0.456499 C         1 UNL       -0.1083 ****
 64 H          -6.660746    1.299607   -0.337819 H         1 UNL        0.0005 ****
 65 H          -7.332124   -0.189653    0.305215 H         1 UNL        0.0005 ****
 66 C          -7.216599   -0.138135   -1.851595 C         1 UNL        0.4195 ****
 67 H          -8.224688    0.301437   -1.880692 H         1 UNL       -0.0868 ****
 68 C          -7.378502   -1.651852   -2.068897 C         1 UNL       -0.2897 ****
 69 H          -6.408262   -2.159601   -2.117358 H         1 UNL        0.0539 ****
 70 H          -7.901255   -1.856870   -3.010164 H         1 UNL        0.0539 ****
 71 H          -7.956681   -2.111882   -1.258819 H         1 UNL        0.0539 ****
 72 C          -6.413270    0.501120   -2.996458 C         1 UNL       -0.2911 ****
 73 H          -5.409078    0.069018   -3.076634 H         1 UNL        0.0548 ****
 74 H          -6.913573    0.343980   -3.958898 H         1 UNL        0.0548 ****
 75 H          -6.301675    1.582043   -2.850817 H         1 UNL        0.0548 ****
@<TRIPOS>BOND
    1     1     2 1
    2     1    27 1
    3     3     4 1
    4     3    54 1
    5     5     6 1
    6     5    12 1
    7     5    14 1
    8     5    31 1
    9     6     7 1
   10     6     8 1
   11     6    18 1
   12     8     9 1
   13     8    10 1
   14     8    27 1
   15    10    11 1
   16    10    17 1
   17    10    21 1
   18    12    13 1
   19    12    24 1
   20    12    29 1
   21    14    15 1
   22    14    16 1
   23    14    21 1
   24    17    35 1
   25    17    36 1
   26    17    41 1
   27    18    19 1
   28    18    20 1
   29    18    24 1
   30    21    22 1
   31    21    23 1
   32    24    25 1
   33    24    26 1
   34    27    28 1
   35    27    39 1
   36    29    30 1
   37    29    51 1
   38    29    56 1
   39    31    32 1
   40    31    33 1
   41    31    34 1
   42    35    39 1
   43    35    45 1
   44    36    37 1
   45    36    38 1
   46    36    48 1
   47    39    40 1
   48    41    42 1
   49    41    43 1
   50    41    44 1
   51    45    46 1
   52    45    47 1
   53    45    54 1
   54    48    49 1
   55    48    50 1
   56    48    54 1
   57    51    52 1
   58    51    53 1
   59    51    60 1
   60    54    55 1
   61    56    57 1
   62    56    58 1
   63    56    59 1
   64    60    61 1
   65    60    62 1
   66    60    63 1
   67    63    64 1
   68    63    65 1
   69    63    66 1
   70    66    67 1
   71    66    68 1
   72    66    72 1
   73    68    69 1
   74    68    70 1
   75    68    71 1
   76    72    73 1
   77    72    74 1
   78    72    75 1
@<TRIPOS>SUBSTRUCTURE
      1  UNL              1 ****               0 ****  ****  


