@<TRIPOS>MOLECULE
UNL
   74    77     1     0     1
SMALL
USER_CHARGES
@<TRIPOS>ATOM
  1 O           7.528754   -1.650380   -0.565160 O         1 UNL       -0.7652 ****
  2 H           7.999967   -1.218289   -1.289867 H         1 UNL        0.4258 ****
  3 C          -0.845361    0.823556    0.596702 C         1 UNL        0.4490 ****
  4 C           0.054590    1.295883   -0.582363 C         1 UNL        0.0504 ****
  5 H          -0.128995    0.571396   -1.394019 H         1 UNL       -0.0269 ****
  6 C           1.565477    1.240554   -0.320749 C         1 UNL        0.0630 ****
  7 H           1.821206    1.938749    0.488536 H         1 UNL       -0.0402 ****
  8 C           1.975644   -0.196617    0.098379 C         1 UNL        0.0090 ****
  9 H           1.815878   -0.820229   -0.796930 H         1 UNL       -0.0508 ****
 10 C          -2.250655    1.039507   -0.065599 C         1 UNL       -0.0765 ****
 11 H          -2.293430    0.282230   -0.860718 H         1 UNL       -0.0274 ****
 12 C          -0.449184   -0.634432    0.900050 C         1 UNL       -0.2028 ****
 13 H          -0.698656   -1.259978    0.031438 H         1 UNL        0.0183 ****
 14 H          -1.017298   -1.034036    1.748556 H         1 UNL        0.0183 ****
 15 C           3.504613   -0.316633    0.431354 C         1 UNL        0.4919 ****
 16 C          -0.577783    2.624826   -1.034148 C         1 UNL       -0.1183 ****
 17 H          -0.351298    2.859438   -2.079040 H         1 UNL        0.0145 ****
 18 H          -0.195158    3.459021   -0.433031 H         1 UNL        0.0145 ****
 19 C           1.057131   -0.765389    1.206053 C         1 UNL        0.0246 ****
 20 H           1.265441   -0.264375    2.157142 H         1 UNL       -0.0060 ****
 21 H           1.287601   -1.824502    1.367178 H         1 UNL       -0.0060 ****
 22 C          -2.100306    2.414223   -0.792840 C         1 UNL       -0.0166 ****
 23 H          -2.513319    3.229413   -0.190157 H         1 UNL        0.0073 ****
 24 H          -2.665970    2.410811   -1.731124 H         1 UNL        0.0073 ****
 25 C           2.354640    1.664797   -1.569917 C         1 UNL        0.1576 ****
 26 H           2.276159    2.750571   -1.714448 H         1 UNL       -0.0209 ****
 27 H           1.892949    1.217901   -2.466174 H         1 UNL       -0.0209 ****
 28 C          -3.604786    0.898819    0.687849 C         1 UNL        0.2850 ****
 29 H          -4.351319    1.177724   -0.071946 H         1 UNL       -0.0662 ****
 30 C          -0.649719    1.699747    1.856237 C         1 UNL       -0.3953 ****
 31 H          -1.160229    1.258682    2.717225 H         1 UNL        0.0739 ****
 32 H           0.404606    1.798086    2.126280 H         1 UNL        0.0739 ****
 33 H          -1.043278    2.710807    1.723425 H         1 UNL        0.0739 ****
 34 C           4.337476    0.415393   -0.630447 C         1 UNL       -0.1976 ****
 35 C           3.902835   -1.825431    0.403900 C         1 UNL       -0.2698 ****
 36 H           3.490988   -2.271564   -0.512091 H         1 UNL        0.0379 ****
 37 H           3.426420   -2.343766    1.243131 H         1 UNL        0.0379 ****
 38 C           3.803651    1.272010   -1.513655 C         1 UNL       -0.3258 ****
 39 H           4.458859    1.731901   -2.254362 H         1 UNL        0.1440 ****
 40 C           3.835541    0.280720    1.825252 C         1 UNL       -0.2356 ****
 41 H           3.404503   -0.321762    2.631000 H         1 UNL        0.0370 ****
 42 H           4.913794    0.323077    1.997889 H         1 UNL        0.0370 ****
 43 H           3.453582    1.302045    1.918394 H         1 UNL        0.0370 ****
 44 C           5.826471    0.123530   -0.645168 C         1 UNL       -0.0480 ****
 45 H           6.290710    0.633184   -1.499322 H         1 UNL        0.0233 ****
 46 H           6.310507    0.517863    0.259516 H         1 UNL        0.0233 ****
 47 C           5.413752   -2.097561    0.442557 C         1 UNL        0.0540 ****
 48 H           5.852991   -1.764258    1.391108 H         1 UNL        0.0162 ****
 49 H           5.601943   -3.174876    0.371468 H         1 UNL        0.0162 ****
 50 C          -3.947157   -0.543321    1.135226 C         1 UNL       -0.0716 ****
 51 H          -3.219598   -0.867460    1.890150 H         1 UNL       -0.0049 ****
 52 H          -4.910394   -0.503044    1.661747 H         1 UNL       -0.0049 ****
 53 C           6.127396   -1.381417   -0.696594 C         1 UNL        0.4437 ****
 54 H           5.764803   -1.785956   -1.656099 H         1 UNL       -0.0678 ****
 55 C          -3.845632    1.856101    1.872843 C         1 UNL       -0.3160 ****
 56 H          -3.306465    1.542981    2.771606 H         1 UNL        0.0642 ****
 57 H          -4.912362    1.867320    2.124265 H         1 UNL        0.0642 ****
 58 H          -3.554570    2.886838    1.650496 H         1 UNL        0.0642 ****
 59 C          -4.030608   -1.625467    0.041010 C         1 UNL        0.1137 ****
 60 H          -3.044916   -1.766752   -0.417845 H         1 UNL       -0.0306 ****
 61 H          -4.260410   -2.580914    0.529906 H         1 UNL       -0.0306 ****
 62 C          -5.050093   -1.371732   -1.086240 C         1 UNL       -0.1031 ****
 63 H          -4.989322   -2.207831   -1.798698 H         1 UNL       -0.0014 ****
 64 H          -4.751073   -0.478721   -1.651687 H         1 UNL       -0.0014 ****
 65 C          -6.524905   -1.206883   -0.662271 C         1 UNL        0.4183 ****
 66 H          -6.589986   -0.361301    0.037759 H         1 UNL       -0.0871 ****
 67 C          -7.073410   -2.452170    0.052482 C         1 UNL       -0.2863 ****
 68 H          -6.524563   -2.676232    0.972830 H         1 UNL        0.0529 ****
 69 H          -8.126901   -2.316164    0.322217 H         1 UNL        0.0529 ****
 70 H          -7.008439   -3.334115   -0.598090 H         1 UNL        0.0529 ****
 71 C          -7.392573   -0.860502   -1.883031 C         1 UNL       -0.2858 ****
 72 H          -7.036157    0.047941   -2.382220 H         1 UNL        0.0531 ****
 73 H          -8.437601   -0.697363   -1.595789 H         1 UNL        0.0531 ****
 74 H          -7.373517   -1.674111   -2.619573 H         1 UNL        0.0531 ****
@<TRIPOS>BOND
    1     1     2 1
    2     1    53 1
    3     3     4 1
    4     3    10 1
    5     3    12 1
    6     3    30 1
    7     4     5 1
    8     4     6 1
    9     4    16 1
   10     6     7 1
   11     6     8 1
   12     6    25 1
   13     8     9 1
   14     8    15 1
   15     8    19 1
   16    10    11 1
   17    10    22 1
   18    10    28 1
   19    12    13 1
   20    12    14 1
   21    12    19 1
   22    15    34 1
   23    15    35 1
   24    15    40 1
   25    16    17 1
   26    16    18 1
   27    16    22 1
   28    19    20 1
   29    19    21 1
   30    22    23 1
   31    22    24 1
   32    25    26 1
   33    25    27 1
   34    25    38 1
   35    28    29 1
   36    28    50 1
   37    28    55 1
   38    30    31 1
   39    30    32 1
   40    30    33 1
   41    34    38 1
   42    34    44 1
   43    35    36 1
   44    35    37 1
   45    35    47 1
   46    38    39 1
   47    40    41 1
   48    40    42 1
   49    40    43 1
   50    44    45 1
   51    44    46 1
   52    44    53 1
   53    47    48 1
   54    47    49 1
   55    47    53 1
   56    50    51 1
   57    50    52 1
   58    50    59 1
   59    53    54 1
   60    55    56 1
   61    55    57 1
   62    55    58 1
   63    59    60 1
   64    59    61 1
   65    59    62 1
   66    62    63 1
   67    62    64 1
   68    62    65 1
   69    65    66 1
   70    65    67 1
   71    65    71 1
   72    67    68 1
   73    67    69 1
   74    67    70 1
   75    71    72 1
   76    71    73 1
   77    71    74 1
@<TRIPOS>SUBSTRUCTURE
      1  UNL              1 ****               0 ****  ****  


