@<TRIPOS>MOLECULE
UNL
   74    77     1     0     1
SMALL
USER_CHARGES
@<TRIPOS>ATOM
  1 O           7.673395    1.541176   -0.788799 O         1 UNL       -0.7652 ****
  2 H           8.009589    2.115552   -0.088076 H         1 UNL        0.4258 ****
  3 C          -0.661055   -1.168668    0.129719 C         1 UNL        0.4490 ****
  4 C           0.037666   -0.136395    1.058569 C         1 UNL        0.0504 ****
  5 H          -0.188436    0.847910    0.613133 H         1 UNL       -0.0269 ****
  6 C           1.568564   -0.225142    1.107218 C         1 UNL        0.0630 ****
  7 H           1.861437   -1.199889    1.522612 H         1 UNL       -0.0402 ****
  8 C           2.148965   -0.086666   -0.324706 C         1 UNL        0.0090 ****
  9 H           1.929461    0.949479   -0.631586 H         1 UNL       -0.0508 ****
 10 C          -2.160031   -0.779787    0.376787 C         1 UNL       -0.0765 ****
 11 H          -2.308748    0.175253   -0.148567 H         1 UNL       -0.0274 ****
 12 C          -0.110211   -0.921028   -1.289550 C         1 UNL       -0.2028 ****
 13 H          -0.427332    0.078724   -1.620268 H         1 UNL        0.0183 ****
 14 H          -0.520568   -1.632565   -2.013462 H         1 UNL        0.0183 ****
 15 C           3.712445   -0.217471   -0.360274 C         1 UNL        0.4919 ****
 16 C          -0.753547   -0.207291    2.374061 C         1 UNL       -0.1183 ****
 17 H          -0.678496    0.716393    2.956563 H         1 UNL        0.0145 ****
 18 H          -0.373155   -1.014466    3.012436 H         1 UNL        0.0145 ****
 19 C           1.429423   -1.012578   -1.332970 C         1 UNL        0.0246 ****
 20 H           1.721141   -2.053154   -1.155457 H         1 UNL       -0.0060 ****
 21 H           1.761143   -0.777686   -2.350716 H         1 UNL       -0.0060 ****
 22 C          -2.209720   -0.497946    1.915002 C         1 UNL       -0.0166 ****
 23 H          -2.617808   -1.365009    2.447605 H         1 UNL        0.0073 ****
 24 H          -2.877093    0.340549    2.138194 H         1 UNL        0.0073 ****
 25 C           2.154092    0.868083    2.015596 C         1 UNL        0.1576 ****
 26 H           1.967746    0.622617    3.069613 H         1 UNL       -0.0209 ****
 27 H           1.620305    1.816847    1.839192 H         1 UNL       -0.0209 ****
 28 C          -3.284253   -1.739676   -0.085547 C         1 UNL        0.2850 ****
 29 H          -3.138587   -2.692737    0.443712 H         1 UNL       -0.0662 ****
 30 C          -0.405480   -2.629462    0.565927 C         1 UNL       -0.3953 ****
 31 H          -0.869048   -3.328608   -0.138320 H         1 UNL        0.0739 ****
 32 H           0.659395   -2.871326    0.605501 H         1 UNL        0.0739 ****
 33 H          -0.821073   -2.841367    1.555796 H         1 UNL        0.0739 ****
 34 C           4.338343    0.601910    0.777156 C         1 UNL       -0.1976 ****
 35 C           4.229224    0.359813   -1.715006 C         1 UNL       -0.2698 ****
 36 H           3.743145    1.331353   -1.880878 H         1 UNL        0.0379 ****
 37 H           3.908528   -0.291917   -2.534973 H         1 UNL        0.0379 ****
 38 C           3.625926    1.084468    1.805931 C         1 UNL       -0.3258 ****
 39 H           4.139823    1.680223    2.561212 H         1 UNL        0.1440 ****
 40 C           4.166785   -1.695064   -0.219700 C         1 UNL       -0.2356 ****
 41 H           3.898182   -2.282164   -1.103572 H         1 UNL        0.0370 ****
 42 H           5.250319   -1.772229   -0.100551 H         1 UNL        0.0370 ****
 43 H           3.711725   -2.166590    0.656841 H         1 UNL        0.0370 ****
 44 C           5.832207    0.853825    0.690390 C         1 UNL       -0.0480 ****
 45 H           6.138320    1.522383    1.505373 H         1 UNL        0.0233 ****
 46 H           6.394126   -0.081809    0.821204 H         1 UNL        0.0233 ****
 47 C           5.750211    0.554710   -1.797615 C         1 UNL        0.0540 ****
 48 H           6.276854   -0.406234   -1.742990 H         1 UNL        0.0162 ****
 49 H           6.018371    1.005082   -2.760073 H         1 UNL        0.0162 ****
 50 C          -4.692524   -1.242742    0.338457 C         1 UNL       -0.0716 ****
 51 H          -5.416539   -2.020776    0.056694 H         1 UNL       -0.0049 ****
 52 H          -4.740836   -1.175477    1.432584 H         1 UNL       -0.0049 ****
 53 C           6.249157    1.442624   -0.665146 C         1 UNL        0.4437 ****
 54 H           5.801585    2.444553   -0.772774 H         1 UNL       -0.0678 ****
 55 C          -3.256048   -2.047033   -1.594593 C         1 UNL       -0.3160 ****
 56 H          -3.224969   -1.133004   -2.198109 H         1 UNL        0.0642 ****
 57 H          -4.151546   -2.607808   -1.887759 H         1 UNL        0.0642 ****
 58 H          -2.389571   -2.652400   -1.872330 H         1 UNL        0.0642 ****
 59 C          -5.160351    0.095667   -0.257572 C         1 UNL        0.1137 ****
 60 H          -4.469366    0.893807    0.040227 H         1 UNL       -0.0306 ****
 61 H          -5.121805    0.045141   -1.352382 H         1 UNL       -0.0306 ****
 62 C          -6.586105    0.456193    0.191686 C         1 UNL       -0.1031 ****
 63 H          -6.613186    0.477908    1.290918 H         1 UNL       -0.0014 ****
 64 H          -7.264553   -0.354771   -0.110626 H         1 UNL       -0.0014 ****
 65 C          -7.161835    1.791855   -0.333933 C         1 UNL        0.4183 ****
 66 H          -8.175888    1.868549    0.085742 H         1 UNL       -0.0871 ****
 67 C          -7.304447    1.814493   -1.864877 C         1 UNL       -0.2863 ****
 68 H          -7.872134    0.948687   -2.225724 H         1 UNL        0.0529 ****
 69 H          -7.829248    2.718553   -2.194289 H         1 UNL        0.0529 ****
 70 H          -6.327656    1.804639   -2.362148 H         1 UNL        0.0529 ****
 71 C          -6.374242    3.014615    0.165412 C         1 UNL       -0.2858 ****
 72 H          -6.277216    3.008010    1.257526 H         1 UNL        0.0531 ****
 73 H          -6.877892    3.945543   -0.119155 H         1 UNL        0.0531 ****
 74 H          -5.364552    3.046996   -0.260033 H         1 UNL        0.0531 ****
@<TRIPOS>BOND
    1     1     2 1
    2     1    53 1
    3     3     4 1
    4     3    10 1
    5     3    12 1
    6     3    30 1
    7     4     5 1
    8     4     6 1
    9     4    16 1
   10     6     7 1
   11     6     8 1
   12     6    25 1
   13     8     9 1
   14     8    15 1
   15     8    19 1
   16    10    11 1
   17    10    22 1
   18    10    28 1
   19    12    13 1
   20    12    14 1
   21    12    19 1
   22    15    34 1
   23    15    35 1
   24    15    40 1
   25    16    17 1
   26    16    18 1
   27    16    22 1
   28    19    20 1
   29    19    21 1
   30    22    23 1
   31    22    24 1
   32    25    26 1
   33    25    27 1
   34    25    38 1
   35    28    29 1
   36    28    50 1
   37    28    55 1
   38    30    31 1
   39    30    32 1
   40    30    33 1
   41    34    38 1
   42    34    44 1
   43    35    36 1
   44    35    37 1
   45    35    47 1
   46    38    39 1
   47    40    41 1
   48    40    42 1
   49    40    43 1
   50    44    45 1
   51    44    46 1
   52    44    53 1
   53    47    48 1
   54    47    49 1
   55    47    53 1
   56    50    51 1
   57    50    52 1
   58    50    59 1
   59    53    54 1
   60    55    56 1
   61    55    57 1
   62    55    58 1
   63    59    60 1
   64    59    61 1
   65    59    62 1
   66    62    63 1
   67    62    64 1
   68    62    65 1
   69    65    66 1
   70    65    67 1
   71    65    71 1
   72    67    68 1
   73    67    69 1
   74    67    70 1
   75    71    72 1
   76    71    73 1
   77    71    74 1
@<TRIPOS>SUBSTRUCTURE
      1  UNL              1 ****               0 ****  ****  


