@<TRIPOS>MOLECULE
UNL
   74    77     1     0     1
SMALL
USER_CHARGES
@<TRIPOS>ATOM
  1 O          -7.845631   -0.759928   -1.150590 O         1 UNL       -0.7652 ****
  2 H          -8.130492   -1.676938   -1.041501 H         1 UNL        0.4258 ****
  3 C           0.640323    0.861058    0.583615 C         1 UNL        0.4490 ****
  4 C           0.000020   -0.555315    0.562404 C         1 UNL        0.0504 ****
  5 H           0.139929   -0.916756   -0.471109 H         1 UNL       -0.0269 ****
  6 C          -1.513054   -0.597751    0.812865 C         1 UNL        0.0630 ****
  7 H          -1.722607   -0.225522    1.825773 H         1 UNL       -0.0402 ****
  8 C          -2.242593    0.300136   -0.220620 C         1 UNL        0.0090 ****
  9 H          -2.097367   -0.195632   -1.194810 H         1 UNL       -0.0508 ****
 10 C           2.140001    0.481364    0.326669 C         1 UNL       -0.0765 ****
 11 H           2.196264    0.194822   -0.733969 H         1 UNL       -0.0274 ****
 12 C          -0.063119    1.674014   -0.522451 C         1 UNL       -0.2028 ****
 13 H           0.177021    1.223451   -1.496469 H         1 UNL        0.0183 ****
 14 H           0.299454    2.706374   -0.559540 H         1 UNL        0.0183 ****
 15 C          -3.794865    0.345471    0.005048 C         1 UNL        0.4919 ****
 16 C           0.924436   -1.406942    1.446510 C         1 UNL       -0.1183 ****
 17 H           0.872405   -2.472213    1.200334 H         1 UNL        0.0145 ****
 18 H           0.644903   -1.313511    2.503313 H         1 UNL        0.0145 ****
 19 C          -1.593911    1.699687   -0.331540 C         1 UNL        0.0246 ****
 20 H          -1.823322    2.287735    0.563444 H         1 UNL       -0.0060 ****
 21 H          -2.037951    2.246076   -1.171337 H         1 UNL       -0.0060 ****
 22 C           2.336171   -0.810541    1.187663 C         1 UNL       -0.0166 ****
 23 H           2.832553   -0.565489    2.134056 H         1 UNL        0.0073 ****
 24 H           2.987187   -1.526943    0.676895 H         1 UNL        0.0073 ****
 25 C          -2.045211   -2.037041    0.721568 C         1 UNL        0.1576 ****
 26 H          -1.742028   -2.608322    1.609070 H         1 UNL       -0.0209 ****
 27 H          -1.570522   -2.550747   -0.131064 H         1 UNL       -0.0209 ****
 28 C           3.248099    1.533822    0.578921 C         1 UNL        0.2850 ****
 29 H           3.201691    1.808149    1.643028 H         1 UNL       -0.0662 ****
 30 C           0.489447    1.560601    1.953782 C         1 UNL       -0.3953 ****
 31 H           0.904018    2.573692    1.917355 H         1 UNL        0.0739 ****
 32 H          -0.555191    1.651399    2.261192 H         1 UNL        0.0739 ****
 33 H           1.014101    1.022884    2.749427 H         1 UNL        0.0739 ****
 34 C          -4.332843   -1.067626    0.271476 C         1 UNL       -0.1976 ****
 35 C          -4.470863    0.884961   -1.294001 C         1 UNL       -0.2698 ****
 36 H          -4.043585    0.346466   -2.151428 H         1 UNL        0.0379 ****
 37 H          -4.210520    1.940405   -1.429100 H         1 UNL        0.0379 ****
 38 C          -3.538273   -2.106274    0.569168 C         1 UNL       -0.3258 ****
 39 H          -3.995054   -3.085203    0.719201 H         1 UNL        0.1440 ****
 40 C          -4.173283    1.257393    1.202815 C         1 UNL       -0.2356 ****
 41 H          -3.974083    2.310809    0.982251 H         1 UNL        0.0370 ****
 42 H          -5.234920    1.176474    1.449011 H         1 UNL        0.0370 ****
 43 H          -3.612162    0.982654    2.101346 H         1 UNL        0.0370 ****
 44 C          -5.836559   -1.250081    0.181164 C         1 UNL       -0.0480 ****
 45 H          -6.083807   -2.312968    0.299571 H         1 UNL        0.0233 ****
 46 H          -6.344359   -0.714816    0.995966 H         1 UNL        0.0233 ****
 47 C          -5.998784    0.737961   -1.337845 C         1 UNL        0.0540 ****
 48 H          -6.478486    1.346571   -0.561174 H         1 UNL        0.0162 ****
 49 H          -6.382170    1.097562   -2.299494 H         1 UNL        0.0162 ****
 50 C           4.671910    0.950721    0.364931 C         1 UNL       -0.0716 ****
 51 H           5.393555    1.730539    0.649182 H         1 UNL       -0.0049 ****
 52 H           4.830729    0.127766    1.070871 H         1 UNL       -0.0049 ****
 53 C          -6.413468   -0.713784   -1.136948 C         1 UNL        0.4437 ****
 54 H          -6.019182   -1.316927   -1.971527 H         1 UNL       -0.0678 ****
 55 C           3.069654    2.830721   -0.232860 C         1 UNL       -0.3160 ****
 56 H           2.928331    2.631348   -1.300853 H         1 UNL        0.0642 ****
 57 H           3.953047    3.471903   -0.128862 H         1 UNL        0.0642 ****
 58 H           2.207666    3.409531    0.108079 H         1 UNL        0.0642 ****
 59 C           5.009145    0.475933   -1.058903 C         1 UNL        0.1137 ****
 60 H           4.372519   -0.374171   -1.333890 H         1 UNL       -0.0306 ****
 61 H           4.769632    1.272032   -1.774867 H         1 UNL       -0.0306 ****
 62 C           6.490285    0.101800   -1.259676 C         1 UNL       -0.1031 ****
 63 H           7.104645    0.984119   -1.028616 H         1 UNL       -0.0014 ****
 64 H           6.657423   -0.112110   -2.325893 H         1 UNL       -0.0014 ****
 65 C           7.027329   -1.092412   -0.442134 C         1 UNL        0.4183 ****
 66 H           6.861344   -0.884093    0.624467 H         1 UNL       -0.0871 ****
 67 C           8.543196   -1.238746   -0.651334 C         1 UNL       -0.2863 ****
 68 H           9.075451   -0.322321   -0.371609 H         1 UNL        0.0529 ****
 69 H           8.950874   -2.060094   -0.050951 H         1 UNL        0.0529 ****
 70 H           8.774200   -1.449801   -1.703495 H         1 UNL        0.0529 ****
 71 C           6.308446   -2.407175   -0.784048 C         1 UNL       -0.2858 ****
 72 H           5.234869   -2.357666   -0.575536 H         1 UNL        0.0531 ****
 73 H           6.718389   -3.240604   -0.202237 H         1 UNL        0.0531 ****
 74 H           6.430846   -2.652224   -1.847209 H         1 UNL        0.0531 ****
@<TRIPOS>BOND
    1     1     2 1
    2     1    53 1
    3     3     4 1
    4     3    10 1
    5     3    12 1
    6     3    30 1
    7     4     5 1
    8     4     6 1
    9     4    16 1
   10     6     7 1
   11     6     8 1
   12     6    25 1
   13     8     9 1
   14     8    15 1
   15     8    19 1
   16    10    11 1
   17    10    22 1
   18    10    28 1
   19    12    13 1
   20    12    14 1
   21    12    19 1
   22    15    34 1
   23    15    35 1
   24    15    40 1
   25    16    17 1
   26    16    18 1
   27    16    22 1
   28    19    20 1
   29    19    21 1
   30    22    23 1
   31    22    24 1
   32    25    26 1
   33    25    27 1
   34    25    38 1
   35    28    29 1
   36    28    50 1
   37    28    55 1
   38    30    31 1
   39    30    32 1
   40    30    33 1
   41    34    38 1
   42    34    44 1
   43    35    36 1
   44    35    37 1
   45    35    47 1
   46    38    39 1
   47    40    41 1
   48    40    42 1
   49    40    43 1
   50    44    45 1
   51    44    46 1
   52    44    53 1
   53    47    48 1
   54    47    49 1
   55    47    53 1
   56    50    51 1
   57    50    52 1
   58    50    59 1
   59    53    54 1
   60    55    56 1
   61    55    57 1
   62    55    58 1
   63    59    60 1
   64    59    61 1
   65    59    62 1
   66    62    63 1
   67    62    64 1
   68    62    65 1
   69    65    66 1
   70    65    67 1
   71    65    71 1
   72    67    68 1
   73    67    69 1
   74    67    70 1
   75    71    72 1
   76    71    73 1
   77    71    74 1
@<TRIPOS>SUBSTRUCTURE
      1  UNL              1 ****               0 ****  ****  


