@<TRIPOS>MOLECULE
UNL
   74    77     1     0     1
SMALL
USER_CHARGES
@<TRIPOS>ATOM
  1 O          -8.080548    0.552308    0.313283 O         1 UNL       -0.7652 ****
  2 H          -8.545295   -0.279936    0.472419 H         1 UNL        0.4258 ****
  3 C           0.659745   -0.016370   -0.467765 C         1 UNL        0.4490 ****
  4 C          -0.280271   -1.243288   -0.352320 C         1 UNL        0.0504 ****
  5 H          -0.531814   -1.513113   -1.392291 H         1 UNL       -0.0269 ****
  6 C          -1.623421   -0.963053    0.332542 C         1 UNL        0.0630 ****
  7 H          -1.444884   -0.659570    1.373800 H         1 UNL       -0.0402 ****
  8 C          -2.359975    0.182746   -0.415762 C         1 UNL        0.0090 ****
  9 H          -2.621818   -0.235509   -1.401849 H         1 UNL       -0.0508 ****
 10 C           1.876149   -0.686977   -1.179427 C         1 UNL       -0.0765 ****
 11 H           1.502041   -0.915790   -2.187980 H         1 UNL       -0.0274 ****
 12 C          -0.078158    1.046043   -1.301255 C         1 UNL       -0.2028 ****
 13 H          -0.229230    0.654618   -2.317783 H         1 UNL        0.0183 ****
 14 H           0.521778    1.960399   -1.403570 H         1 UNL        0.0183 ****
 15 C          -3.725368    0.563205    0.258776 C         1 UNL        0.4919 ****
 16 C           0.629239   -2.369205    0.176774 C         1 UNL       -0.1183 ****
 17 H           0.264830   -3.362226   -0.104617 H         1 UNL        0.0145 ****
 18 H           0.675374   -2.350104    1.272741 H         1 UNL        0.0145 ****
 19 C          -1.445150    1.405120   -0.681606 C         1 UNL        0.0246 ****
 20 H          -1.274018    1.951797    0.251264 H         1 UNL       -0.0060 ****
 21 H          -1.957283    2.106275   -1.349954 H         1 UNL       -0.0060 ****
 22 C           2.027051   -2.055646   -0.443585 C         1 UNL       -0.0166 ****
 23 H           2.788041   -2.006231    0.340119 H         1 UNL        0.0073 ****
 24 H           2.347628   -2.841062   -1.135962 H         1 UNL        0.0073 ****
 25 C          -2.505553   -2.221426    0.353634 C         1 UNL        0.1576 ****
 26 H          -2.121653   -2.937647    1.092394 H         1 UNL       -0.0209 ****
 27 H          -2.431456   -2.738072   -0.617855 H         1 UNL       -0.0209 ****
 28 C           3.167612    0.153448   -1.402049 C         1 UNL        0.2850 ****
 29 H           2.845619    1.200026   -1.515899 H         1 UNL       -0.0662 ****
 30 C           1.050854    0.565352    0.908868 C         1 UNL       -0.3953 ****
 31 H           1.715869    1.426977    0.784776 H         1 UNL        0.0739 ****
 32 H           0.180460    0.910257    1.472186 H         1 UNL        0.0739 ****
 33 H           1.568618   -0.165803    1.536126 H         1 UNL        0.0739 ****
 34 C          -4.506429   -0.706427    0.627382 C         1 UNL       -0.1976 ****
 35 C          -4.577193    1.376747   -0.765118 C         1 UNL       -0.2698 ****
 36 H          -4.554056    0.846720   -1.727552 H         1 UNL        0.0379 ****
 37 H          -4.108405    2.351852   -0.936169 H         1 UNL        0.0379 ****
 38 C          -3.949300   -1.926295    0.645934 C         1 UNL       -0.3258 ****
 39 H          -4.578129   -2.782285    0.893466 H         1 UNL        0.1440 ****
 40 C          -3.514159    1.408290    1.543664 C         1 UNL       -0.2356 ****
 41 H          -3.125677    2.404202    1.308655 H         1 UNL        0.0370 ****
 42 H          -4.450666    1.549984    2.088708 H         1 UNL        0.0370 ****
 43 H          -2.813969    0.919020    2.227746 H         1 UNL        0.0370 ****
 44 C          -5.971519   -0.524555    0.978563 C         1 UNL       -0.0480 ****
 45 H          -6.435589   -1.507421    1.131713 H         1 UNL        0.0233 ****
 46 H          -6.081029    0.027292    1.922908 H         1 UNL        0.0233 ****
 47 C          -6.043112    1.592496   -0.361828 C         1 UNL        0.0540 ****
 48 H          -6.119309    2.211985    0.540505 H         1 UNL        0.0162 ****
 49 H          -6.574759    2.128741   -1.156100 H         1 UNL        0.0162 ****
 50 C           4.198483    0.115682   -0.248268 C         1 UNL       -0.0716 ****
 51 H           3.686648    0.131359    0.719848 H         1 UNL       -0.0049 ****
 52 H           4.739329   -0.838989   -0.288940 H         1 UNL       -0.0049 ****
 53 C          -6.737302    0.263654   -0.093826 C         1 UNL        0.4437 ****
 54 H          -6.755051   -0.324973   -1.026020 H         1 UNL       -0.0678 ****
 55 C           3.835375   -0.258222   -2.730362 C         1 UNL       -0.3160 ****
 56 H           4.127695   -1.315639   -2.708094 H         1 UNL        0.0642 ****
 57 H           4.735596    0.329671   -2.935860 H         1 UNL        0.0642 ****
 58 H           3.152310   -0.119804   -3.575757 H         1 UNL        0.0642 ****
 59 C           5.201525    1.281990   -0.270098 C         1 UNL        0.1137 ****
 60 H           5.780885    1.268942   -1.201068 H         1 UNL       -0.0306 ****
 61 H           4.637740    2.225502   -0.284301 H         1 UNL       -0.0306 ****
 62 C           6.158837    1.320066    0.935370 C         1 UNL       -0.1031 ****
 63 H           5.559908    1.396127    1.854539 H         1 UNL       -0.0014 ****
 64 H           6.751812    2.245322    0.883374 H         1 UNL       -0.0014 ****
 65 C           7.134503    0.133382    1.087528 C         1 UNL        0.4183 ****
 66 H           6.544406   -0.791688    1.156680 H         1 UNL       -0.0871 ****
 67 C           7.932745    0.267967    2.394304 C         1 UNL       -0.2863 ****
 68 H           7.268463    0.327474    3.264160 H         1 UNL        0.0529 ****
 69 H           8.602721   -0.586815    2.541661 H         1 UNL        0.0529 ****
 70 H           8.549699    1.175796    2.383982 H         1 UNL        0.0529 ****
 71 C           8.085043   -0.002480   -0.112563 C         1 UNL       -0.2858 ****
 72 H           7.546309   -0.182106   -1.048522 H         1 UNL        0.0531 ****
 73 H           8.780574   -0.837030    0.031949 H         1 UNL        0.0531 ****
 74 H           8.682614    0.909539   -0.240875 H         1 UNL        0.0531 ****
@<TRIPOS>BOND
    1     1     2 1
    2     1    53 1
    3     3     4 1
    4     3    10 1
    5     3    12 1
    6     3    30 1
    7     4     5 1
    8     4     6 1
    9     4    16 1
   10     6     7 1
   11     6     8 1
   12     6    25 1
   13     8     9 1
   14     8    15 1
   15     8    19 1
   16    10    11 1
   17    10    22 1
   18    10    28 1
   19    12    13 1
   20    12    14 1
   21    12    19 1
   22    15    34 1
   23    15    35 1
   24    15    40 1
   25    16    17 1
   26    16    18 1
   27    16    22 1
   28    19    20 1
   29    19    21 1
   30    22    23 1
   31    22    24 1
   32    25    26 1
   33    25    27 1
   34    25    38 1
   35    28    29 1
   36    28    50 1
   37    28    55 1
   38    30    31 1
   39    30    32 1
   40    30    33 1
   41    34    38 1
   42    34    44 1
   43    35    36 1
   44    35    37 1
   45    35    47 1
   46    38    39 1
   47    40    41 1
   48    40    42 1
   49    40    43 1
   50    44    45 1
   51    44    46 1
   52    44    53 1
   53    47    48 1
   54    47    49 1
   55    47    53 1
   56    50    51 1
   57    50    52 1
   58    50    59 1
   59    53    54 1
   60    55    56 1
   61    55    57 1
   62    55    58 1
   63    59    60 1
   64    59    61 1
   65    59    62 1
   66    62    63 1
   67    62    64 1
   68    62    65 1
   69    65    66 1
   70    65    67 1
   71    65    71 1
   72    67    68 1
   73    67    69 1
   74    67    70 1
   75    71    72 1
   76    71    73 1
   77    71    74 1
@<TRIPOS>SUBSTRUCTURE
      1  UNL              1 ****               0 ****  ****  


