@<TRIPOS>MOLECULE
UNL
   74    77     1     0     1
SMALL
USER_CHARGES
@<TRIPOS>ATOM
  1 O          -7.564877    1.781983   -0.031259 O         1 UNL       -0.7652 ****
  2 H          -7.943037    1.842838   -0.918521 H         1 UNL        0.4258 ****
  3 C           0.745087   -1.115647    0.415556 C         1 UNL        0.4490 ****
  4 C          -0.012352   -0.811703   -0.907476 C         1 UNL        0.0504 ****
  5 H           0.224169    0.241799   -1.136601 H         1 UNL       -0.0269 ****
  6 C          -1.542537   -0.881346   -0.820976 C         1 UNL        0.0630 ****
  7 H          -1.844271   -1.908284   -0.570468 H         1 UNL       -0.0402 ****
  8 C          -2.051470    0.082436    0.282862 C         1 UNL        0.0090 ****
  9 H          -1.829551    1.096992   -0.087803 H         1 UNL       -0.0508 ****
 10 C           2.224597   -0.975887   -0.085918 C         1 UNL       -0.0765 ****
 11 H           2.384893    0.102397   -0.235977 H         1 UNL       -0.0274 ****
 12 C           0.263793   -0.071382    1.443651 C         1 UNL       -0.2028 ****
 13 H           0.584762    0.925684    1.108520 H         1 UNL        0.0183 ****
 14 H           0.718902   -0.230820    2.426456 H         1 UNL        0.0183 ****
 15 C          -3.609430    0.028143    0.463514 C         1 UNL        0.4919 ****
 16 C           0.711342   -1.657508   -1.967158 C         1 UNL       -0.1183 ****
 17 H           0.599390   -1.247028   -2.975675 H         1 UNL        0.0145 ****
 18 H           0.304859   -2.676186   -1.994553 H         1 UNL        0.0145 ****
 19 C          -1.270468   -0.089458    1.606450 C         1 UNL        0.0246 ****
 20 H          -1.557901   -1.029960    2.088326 H         1 UNL       -0.0060 ****
 21 H          -1.553011    0.704679    2.306816 H         1 UNL       -0.0060 ****
 22 C           2.191491   -1.659602   -1.492680 C         1 UNL       -0.0166 ****
 23 H           2.574194   -2.684791   -1.425320 H         1 UNL        0.0073 ****
 24 H           2.842551   -1.135828   -2.199534 H         1 UNL        0.0073 ****
 25 C          -2.186511   -0.517672   -2.168634 C         1 UNL        0.1576 ****
 26 H          -2.050765   -1.338504   -2.885400 H         1 UNL       -0.0209 ****
 27 H          -1.656102    0.343306   -2.608632 H         1 UNL       -0.0209 ****
 28 C           3.384430   -1.494108    0.799808 C         1 UNL        0.2850 ****
 29 H           3.230976   -2.575480    0.932548 H         1 UNL       -0.0662 ****
 30 C           0.485513   -2.549163    0.932665 C         1 UNL       -0.3953 ****
 31 H           0.996515   -2.713059    1.887409 H         1 UNL        0.0739 ****
 32 H          -0.576651   -2.745078    1.098478 H         1 UNL        0.0739 ****
 33 H           0.848346   -3.309675    0.234586 H         1 UNL        0.0739 ****
 34 C          -4.301959    0.037052   -0.906527 C         1 UNL       -0.1976 ****
 35 C          -4.064251    1.300041    1.245164 C         1 UNL       -0.2698 ****
 36 H          -3.582039    2.174445    0.786257 H         1 UNL        0.0379 ****
 37 H          -3.694871    1.246543    2.275040 H         1 UNL        0.0379 ****
 38 C          -3.648413   -0.190209   -2.055448 C         1 UNL       -0.3258 ****
 39 H          -4.206969   -0.140722   -2.990874 H         1 UNL        0.1440 ****
 40 C          -4.052105   -1.241947    1.238437 C         1 UNL       -0.2356 ****
 41 H          -3.730821   -1.204924    2.284117 H         1 UNL        0.0370 ****
 42 H          -5.139355   -1.352061    1.240596 H         1 UNL        0.0370 ****
 43 H          -3.637287   -2.146854    0.783687 H         1 UNL        0.0370 ****
 44 C          -5.792543    0.321416   -0.912240 C         1 UNL       -0.0480 ****
 45 H          -6.147819    0.390663   -1.948511 H         1 UNL        0.0233 ****
 46 H          -6.348545   -0.501847   -0.441760 H         1 UNL        0.0233 ****
 47 C          -5.581348    1.536568    1.270513 C         1 UNL        0.0540 ****
 48 H          -6.098554    0.736970    1.815400 H         1 UNL        0.0162 ****
 49 H          -5.805877    2.471003    1.797296 H         1 UNL        0.0162 ****
 50 C           4.761954   -1.383876    0.084470 C         1 UNL       -0.0716 ****
 51 H           5.524789   -1.789464    0.764503 H         1 UNL       -0.0049 ****
 52 H           4.744002   -2.066229   -0.773696 H         1 UNL       -0.0049 ****
 53 C          -6.147631    1.601432   -0.141879 C         1 UNL        0.4437 ****
 54 H          -5.707386    2.466997   -0.664149 H         1 UNL       -0.0678 ****
 55 C           3.408337   -0.877219    2.211700 C         1 UNL       -0.3160 ****
 56 H           3.326874    0.213955    2.188939 H         1 UNL        0.0642 ****
 57 H           4.341622   -1.129727    2.727496 H         1 UNL        0.0642 ****
 58 H           2.586316   -1.252338    2.827521 H         1 UNL        0.0642 ****
 59 C           5.247248   -0.010725   -0.432670 C         1 UNL        0.1137 ****
 60 H           6.055858   -0.212922   -1.146710 H         1 UNL       -0.0306 ****
 61 H           4.452217    0.468483   -1.016680 H         1 UNL       -0.0306 ****
 62 C           5.773778    0.966271    0.633806 C         1 UNL       -0.1031 ****
 63 H           6.474211    0.428031    1.288815 H         1 UNL       -0.0014 ****
 64 H           4.949248    1.293852    1.277244 H         1 UNL       -0.0014 ****
 65 C           6.488073    2.231495    0.099193 C         1 UNL        0.4183 ****
 66 H           6.761878    2.818616    0.988337 H         1 UNL       -0.0871 ****
 67 C           5.565076    3.114061   -0.757665 C         1 UNL       -0.2863 ****
 68 H           4.636205    3.353853   -0.226677 H         1 UNL        0.0529 ****
 69 H           6.056462    4.059712   -1.013708 H         1 UNL        0.0529 ****
 70 H           5.294748    2.621196   -1.698727 H         1 UNL        0.0529 ****
 71 C           7.795340    1.913039   -0.645658 C         1 UNL       -0.2858 ****
 72 H           8.461316    1.292611   -0.034439 H         1 UNL        0.0531 ****
 73 H           8.333923    2.834282   -0.895719 H         1 UNL        0.0531 ****
 74 H           7.610359    1.380008   -1.585336 H         1 UNL        0.0531 ****
@<TRIPOS>BOND
    1     1     2 1
    2     1    53 1
    3     3     4 1
    4     3    10 1
    5     3    12 1
    6     3    30 1
    7     4     5 1
    8     4     6 1
    9     4    16 1
   10     6     7 1
   11     6     8 1
   12     6    25 1
   13     8     9 1
   14     8    15 1
   15     8    19 1
   16    10    11 1
   17    10    22 1
   18    10    28 1
   19    12    13 1
   20    12    14 1
   21    12    19 1
   22    15    34 1
   23    15    35 1
   24    15    40 1
   25    16    17 1
   26    16    18 1
   27    16    22 1
   28    19    20 1
   29    19    21 1
   30    22    23 1
   31    22    24 1
   32    25    26 1
   33    25    27 1
   34    25    38 1
   35    28    29 1
   36    28    50 1
   37    28    55 1
   38    30    31 1
   39    30    32 1
   40    30    33 1
   41    34    38 1
   42    34    44 1
   43    35    36 1
   44    35    37 1
   45    35    47 1
   46    38    39 1
   47    40    41 1
   48    40    42 1
   49    40    43 1
   50    44    45 1
   51    44    46 1
   52    44    53 1
   53    47    48 1
   54    47    49 1
   55    47    53 1
   56    50    51 1
   57    50    52 1
   58    50    59 1
   59    53    54 1
   60    55    56 1
   61    55    57 1
   62    55    58 1
   63    59    60 1
   64    59    61 1
   65    59    62 1
   66    62    63 1
   67    62    64 1
   68    62    65 1
   69    65    66 1
   70    65    67 1
   71    65    71 1
   72    67    68 1
   73    67    69 1
   74    67    70 1
   75    71    72 1
   76    71    73 1
   77    71    74 1
@<TRIPOS>SUBSTRUCTURE
      1  UNL              1 ****               0 ****  ****  


