@<TRIPOS>MOLECULE
UNL
   74    77     1     0     1
SMALL
USER_CHARGES
@<TRIPOS>ATOM
  1 O           8.095650   -0.222850   -1.113534 O         1 UNL       -0.7652 ****
  2 H           8.482275    0.638770   -1.318668 H         1 UNL        0.4258 ****
  3 C          -0.546220   -0.243116    0.619922 C         1 UNL        0.4490 ****
  4 C           0.254001    0.998216    0.133827 C         1 UNL        0.0504 ****
  5 H           0.169539    0.980758   -0.966677 H         1 UNL       -0.0269 ****
  6 C           1.758459    0.972065    0.433931 C         1 UNL        0.0630 ****
  7 H           1.909439    0.965872    1.522756 H         1 UNL       -0.0402 ****
  8 C           2.395184   -0.304229   -0.175324 C         1 UNL        0.0090 ****
  9 H           2.321756   -0.176619   -1.268141 H         1 UNL       -0.0508 ****
 10 C          -1.991050    0.169413    0.167661 C         1 UNL       -0.0765 ****
 11 H          -2.013416    0.045950   -0.926963 H         1 UNL       -0.0274 ****
 12 C           0.076440   -1.464109   -0.089012 C         1 UNL       -0.2028 ****
 13 H          -0.097321   -1.367786   -1.170628 H         1 UNL        0.0183 ****
 14 H          -0.399325   -2.400406    0.219197 H         1 UNL        0.0183 ****
 15 C           3.928597   -0.424419    0.135738 C         1 UNL        0.4919 ****
 16 C          -0.576507    2.198142    0.611735 C         1 UNL       -0.1183 ****
 17 H          -0.388846    3.099770    0.020164 H         1 UNL        0.0145 ****
 18 H          -0.334158    2.447321    1.652317 H         1 UNL        0.0145 ****
 19 C           1.591522   -1.576242    0.180515 C         1 UNL        0.0246 ****
 20 H           1.739338   -1.825865    1.236607 H         1 UNL       -0.0060 ****
 21 H           1.980897   -2.429317   -0.386633 H         1 UNL       -0.0060 ****
 22 C          -2.043354    1.704542    0.481026 C         1 UNL       -0.0166 ****
 23 H          -2.600328    1.885687    1.408161 H         1 UNL        0.0073 ****
 24 H          -2.573780    2.246849   -0.307370 H         1 UNL        0.0073 ****
 25 C           2.453358    2.222083   -0.129833 C         1 UNL        0.1576 ****
 26 H           2.205113    3.099906    0.481493 H         1 UNL       -0.0209 ****
 27 H           2.052952    2.443814   -1.133182 H         1 UNL       -0.0209 ****
 28 C          -3.220670   -0.592799    0.726865 C         1 UNL        0.2850 ****
 29 H          -3.252712   -0.426564    1.814680 H         1 UNL       -0.0662 ****
 30 C          -0.494716   -0.415634    2.155516 C         1 UNL       -0.3953 ****
 31 H          -1.022996   -1.324985    2.460467 H         1 UNL        0.0739 ****
 32 H           0.528421   -0.496447    2.530764 H         1 UNL        0.0739 ****
 33 H          -0.964630    0.423155    2.678060 H         1 UNL        0.0739 ****
 34 C           4.621106    0.927936   -0.084178 C         1 UNL       -0.1976 ****
 35 C           4.556859   -1.457415   -0.851083 C         1 UNL       -0.2698 ****
 36 H           4.206135   -1.219414   -1.865015 H         1 UNL        0.0379 ****
 37 H           4.179493   -2.459291   -0.619110 H         1 UNL        0.0379 ****
 38 C           3.946567    2.079686   -0.215523 C         1 UNL       -0.3258 ****
 39 H           4.510358    2.995741   -0.395675 H         1 UNL        0.1440 ****
 40 C           4.182324   -0.883290    1.596797 C         1 UNL       -0.2356 ****
 41 H           3.865121   -1.919373    1.751660 H         1 UNL        0.0370 ****
 42 H           5.242709   -0.830573    1.855729 H         1 UNL        0.0370 ****
 43 H           3.644745   -0.249568    2.308942 H         1 UNL        0.0370 ****
 44 C           6.136951    0.911851   -0.151171 C         1 UNL       -0.0480 ****
 45 H           6.502680    1.916073   -0.401482 H         1 UNL        0.0233 ****
 46 H           6.568160    0.652994    0.826229 H         1 UNL        0.0233 ****
 47 C           6.092078   -1.492195   -0.861388 C         1 UNL        0.0540 ****
 48 H           6.487831   -1.830019    0.104528 H         1 UNL        0.0162 ****
 49 H           6.445389   -2.207738   -1.612551 H         1 UNL        0.0162 ****
 50 C          -4.527512   -0.004056    0.138508 C         1 UNL       -0.0716 ****
 51 H          -4.511170    1.087234    0.242857 H         1 UNL       -0.0049 ****
 52 H          -4.542733   -0.205897   -0.942445 H         1 UNL       -0.0049 ****
 53 C           6.667599   -0.114573   -1.162492 C         1 UNL        0.4437 ****
 54 H           6.357452    0.188743   -2.176188 H         1 UNL       -0.0678 ****
 55 C          -3.159425   -2.110578    0.481008 C         1 UNL       -0.3160 ****
 56 H          -3.052167   -2.330485   -0.588811 H         1 UNL        0.0642 ****
 57 H          -4.069909   -2.605430    0.831705 H         1 UNL        0.0642 ****
 58 H          -2.322261   -2.579497    1.002374 H         1 UNL        0.0642 ****
 59 C          -5.825479   -0.514629    0.787494 C         1 UNL        0.1137 ****
 60 H          -5.972310   -1.578877    0.570797 H         1 UNL       -0.0306 ****
 61 H          -5.722797   -0.442530    1.879671 H         1 UNL       -0.0306 ****
 62 C          -7.084980    0.270669    0.376930 C         1 UNL       -0.1031 ****
 63 H          -6.953100    1.321708    0.672281 H         1 UNL       -0.0014 ****
 64 H          -7.938788   -0.103488    0.961265 H         1 UNL       -0.0014 ****
 65 C          -7.470151    0.230331   -1.117360 C         1 UNL        0.4183 ****
 66 H          -6.623632    0.619256   -1.701279 H         1 UNL       -0.0871 ****
 67 C          -8.672345    1.151435   -1.380174 C         1 UNL       -0.2863 ****
 68 H          -8.462019    2.181420   -1.069736 H         1 UNL        0.0529 ****
 69 H          -8.935968    1.168780   -2.443878 H         1 UNL        0.0529 ****
 70 H          -9.555323    0.810117   -0.824516 H         1 UNL        0.0529 ****
 71 C          -7.766415   -1.195484   -1.608789 C         1 UNL       -0.2858 ****
 72 H          -6.899152   -1.856080   -1.508141 H         1 UNL        0.0531 ****
 73 H          -8.056818   -1.192491   -2.665581 H         1 UNL        0.0531 ****
 74 H          -8.592663   -1.639992   -1.038655 H         1 UNL        0.0531 ****
@<TRIPOS>BOND
    1     1     2 1
    2     1    53 1
    3     3     4 1
    4     3    10 1
    5     3    12 1
    6     3    30 1
    7     4     5 1
    8     4     6 1
    9     4    16 1
   10     6     7 1
   11     6     8 1
   12     6    25 1
   13     8     9 1
   14     8    15 1
   15     8    19 1
   16    10    11 1
   17    10    22 1
   18    10    28 1
   19    12    13 1
   20    12    14 1
   21    12    19 1
   22    15    34 1
   23    15    35 1
   24    15    40 1
   25    16    17 1
   26    16    18 1
   27    16    22 1
   28    19    20 1
   29    19    21 1
   30    22    23 1
   31    22    24 1
   32    25    26 1
   33    25    27 1
   34    25    38 1
   35    28    29 1
   36    28    50 1
   37    28    55 1
   38    30    31 1
   39    30    32 1
   40    30    33 1
   41    34    38 1
   42    34    44 1
   43    35    36 1
   44    35    37 1
   45    35    47 1
   46    38    39 1
   47    40    41 1
   48    40    42 1
   49    40    43 1
   50    44    45 1
   51    44    46 1
   52    44    53 1
   53    47    48 1
   54    47    49 1
   55    47    53 1
   56    50    51 1
   57    50    52 1
   58    50    59 1
   59    53    54 1
   60    55    56 1
   61    55    57 1
   62    55    58 1
   63    59    60 1
   64    59    61 1
   65    59    62 1
   66    62    63 1
   67    62    64 1
   68    62    65 1
   69    65    66 1
   70    65    67 1
   71    65    71 1
   72    67    68 1
   73    67    69 1
   74    67    70 1
   75    71    72 1
   76    71    73 1
   77    71    74 1
@<TRIPOS>SUBSTRUCTURE
      1  UNL              1 ****               0 ****  ****  


