@<TRIPOS>MOLECULE
UNL
   74    77     1     0     1
SMALL
USER_CHARGES
@<TRIPOS>ATOM
  1 O           7.969673   -0.238236   -1.311697 O         1 UNL       -0.7652 ****
  2 H           8.345665    0.621880   -1.541431 H         1 UNL        0.4258 ****
  3 C          -0.583169   -0.248703    0.807775 C         1 UNL        0.4490 ****
  4 C           0.192077    0.990055    0.277691 C         1 UNL        0.0504 ****
  5 H           0.060208    0.962456   -0.817849 H         1 UNL       -0.0269 ****
  6 C           1.708193    0.967100    0.511091 C         1 UNL        0.0630 ****
  7 H           1.907833    0.969342    1.592092 H         1 UNL       -0.0402 ****
  8 C           2.317716   -0.313831   -0.116721 C         1 UNL        0.0090 ****
  9 H           2.196105   -0.193471   -1.206059 H         1 UNL       -0.0508 ****
 10 C          -2.045197    0.162291    0.415698 C         1 UNL       -0.0765 ****
 11 H          -2.101413    0.047268   -0.676790 H         1 UNL       -0.0274 ****
 12 C           0.005904   -1.474883    0.080696 C         1 UNL       -0.2028 ****
 13 H          -0.216717   -1.387526   -0.992702 H         1 UNL        0.0183 ****
 14 H          -0.456602   -2.407800    0.419058 H         1 UNL        0.0183 ****
 15 C           3.863495   -0.431261    0.127054 C         1 UNL        0.4919 ****
 16 C          -0.619342    2.194415    0.780254 C         1 UNL       -0.1183 ****
 17 H          -0.469663    3.085527    0.162482 H         1 UNL        0.0145 ****
 18 H          -0.320916    2.464578    1.800892 H         1 UNL        0.0145 ****
 19 C           1.531828   -1.584623    0.282141 C         1 UNL        0.0246 ****
 20 H           1.727522   -1.828390    1.331728 H         1 UNL       -0.0060 ****
 21 H           1.896292   -2.440343   -0.297400 H         1 UNL       -0.0060 ****
 22 C          -2.089470    1.691616    0.743187 C         1 UNL       -0.0166 ****
 23 H          -2.580743    1.859897    1.708783 H         1 UNL        0.0073 ****
 24 H          -2.681707    2.234309   -0.000504 H         1 UNL        0.0073 ****
 25 C           2.376491    2.212864   -0.092749 C         1 UNL        0.1576 ****
 26 H           2.155161    3.095245    0.522360 H         1 UNL       -0.0209 ****
 27 H           1.931472    2.426814   -1.078851 H         1 UNL       -0.0209 ****
 28 C          -3.243146   -0.608048    1.024576 C         1 UNL        0.2850 ****
 29 H          -3.185965   -0.489155    2.116445 H         1 UNL       -0.0662 ****
 30 C          -0.463562   -0.414268    2.339912 C         1 UNL       -0.3953 ****
 31 H          -0.978383   -1.322661    2.670749 H         1 UNL        0.0739 ****
 32 H           0.575074   -0.494977    2.669685 H         1 UNL        0.0739 ****
 33 H          -0.908724    0.427009    2.879893 H         1 UNL        0.0739 ****
 34 C           4.544758    0.919539   -0.134658 C         1 UNL       -0.1976 ****
 35 C           4.447762   -1.472605   -0.877843 C         1 UNL       -0.2698 ****
 36 H           4.051300   -1.244089   -1.877009 H         1 UNL        0.0379 ****
 37 H           4.082436   -2.472598   -0.620017 H         1 UNL        0.0379 ****
 38 C           3.864413    2.070155   -0.244287 C         1 UNL       -0.3258 ****
 39 H           4.419070    2.984859   -0.456764 H         1 UNL        0.1440 ****
 40 C           4.182296   -0.877417    1.579264 C         1 UNL       -0.2356 ****
 41 H           3.874702   -1.912787    1.756688 H         1 UNL        0.0370 ****
 42 H           5.252954   -0.820290    1.790619 H         1 UNL        0.0370 ****
 43 H           3.675160   -0.238811    2.309155 H         1 UNL        0.0370 ****
 44 C           6.056056    0.903182   -0.269816 C         1 UNL       -0.0480 ****
 45 H           6.409615    1.905446   -0.544282 H         1 UNL        0.0233 ****
 46 H           6.531103    0.651976    0.689120 H         1 UNL        0.0233 ****
 47 C           5.980928   -1.506529   -0.957379 C         1 UNL        0.0540 ****
 48 H           6.420420   -1.835790   -0.007544 H         1 UNL        0.0162 ****
 49 H           6.300534   -2.228262   -1.717659 H         1 UNL        0.0162 ****
 50 C          -4.610604    0.004134    0.614400 C         1 UNL       -0.0716 ****
 51 H          -5.386276   -0.530393    1.178390 H         1 UNL       -0.0049 ****
 52 H          -4.660156    1.046201    0.955476 H         1 UNL       -0.0049 ****
 53 C           6.540786   -0.131161   -1.295968 C         1 UNL        0.4437 ****
 54 H           6.184108    0.163651   -2.296785 H         1 UNL       -0.0678 ****
 55 C          -3.223974   -2.119435    0.728615 C         1 UNL       -0.3160 ****
 56 H          -3.113519   -2.325153   -0.341993 H         1 UNL        0.0642 ****
 57 H          -4.158389   -2.586576    1.061805 H         1 UNL        0.0642 ****
 58 H          -2.406214   -2.627084    1.246111 H         1 UNL        0.0642 ****
 59 C          -4.956090   -0.037371   -0.883711 C         1 UNL        0.1137 ****
 60 H          -4.162664    0.460452   -1.455532 H         1 UNL       -0.0306 ****
 61 H          -4.972103   -1.075310   -1.237800 H         1 UNL       -0.0306 ****
 62 C          -6.286882    0.653029   -1.239176 C         1 UNL       -0.1031 ****
 63 H          -6.389972    0.672269   -2.334402 H         1 UNL       -0.0014 ****
 64 H          -6.229185    1.704644   -0.922614 H         1 UNL       -0.0014 ****
 65 C          -7.573722    0.037681   -0.648797 C         1 UNL        0.4183 ****
 66 H          -7.483667    0.032555    0.446835 H         1 UNL       -0.0871 ****
 67 C          -7.796515   -1.411142   -1.110727 C         1 UNL       -0.2863 ****
 68 H          -6.982331   -2.073985   -0.800487 H         1 UNL        0.0529 ****
 69 H          -8.726654   -1.815531   -0.695431 H         1 UNL        0.0529 ****
 70 H          -7.870960   -1.463666   -2.204840 H         1 UNL        0.0529 ****
 71 C          -8.788726    0.909338   -1.005255 C         1 UNL       -0.2858 ****
 72 H          -8.661436    1.937712   -0.647910 H         1 UNL        0.0531 ****
 73 H          -9.708408    0.511315   -0.561386 H         1 UNL        0.0531 ****
 74 H          -8.935174    0.950392   -2.092365 H         1 UNL        0.0531 ****
@<TRIPOS>BOND
    1     1     2 1
    2     1    53 1
    3     3     4 1
    4     3    10 1
    5     3    12 1
    6     3    30 1
    7     4     5 1
    8     4     6 1
    9     4    16 1
   10     6     7 1
   11     6     8 1
   12     6    25 1
   13     8     9 1
   14     8    15 1
   15     8    19 1
   16    10    11 1
   17    10    22 1
   18    10    28 1
   19    12    13 1
   20    12    14 1
   21    12    19 1
   22    15    34 1
   23    15    35 1
   24    15    40 1
   25    16    17 1
   26    16    18 1
   27    16    22 1
   28    19    20 1
   29    19    21 1
   30    22    23 1
   31    22    24 1
   32    25    26 1
   33    25    27 1
   34    25    38 1
   35    28    29 1
   36    28    50 1
   37    28    55 1
   38    30    31 1
   39    30    32 1
   40    30    33 1
   41    34    38 1
   42    34    44 1
   43    35    36 1
   44    35    37 1
   45    35    47 1
   46    38    39 1
   47    40    41 1
   48    40    42 1
   49    40    43 1
   50    44    45 1
   51    44    46 1
   52    44    53 1
   53    47    48 1
   54    47    49 1
   55    47    53 1
   56    50    51 1
   57    50    52 1
   58    50    59 1
   59    53    54 1
   60    55    56 1
   61    55    57 1
   62    55    58 1
   63    59    60 1
   64    59    61 1
   65    59    62 1
   66    62    63 1
   67    62    64 1
   68    62    65 1
   69    65    66 1
   70    65    67 1
   71    65    71 1
   72    67    68 1
   73    67    69 1
   74    67    70 1
   75    71    72 1
   76    71    73 1
   77    71    74 1
@<TRIPOS>SUBSTRUCTURE
      1  UNL              1 ****               0 ****  ****  


