@<TRIPOS>MOLECULE
UNL
   74    77     1     0     1
SMALL
USER_CHARGES
@<TRIPOS>ATOM
  1 O          -8.193035    0.340365   -0.037952 O         1 UNL       -0.7652 ****
  2 H          -8.630879   -0.511124   -0.169103 H         1 UNL        0.4258 ****
  3 C           0.618108    0.181737   -0.089255 C         1 UNL        0.4490 ****
  4 C          -0.286869   -1.039951   -0.413074 C         1 UNL        0.0504 ****
  5 H          -0.424455   -1.013173   -1.508025 H         1 UNL       -0.0269 ****
  6 C          -1.699767   -0.990431    0.183451 C         1 UNL        0.0630 ****
  7 H          -1.629043   -0.996258    1.280401 H         1 UNL       -0.0402 ****
  8 C          -2.419968    0.305505   -0.272688 C         1 UNL        0.0090 ****
  9 H          -2.571062    0.191329   -1.358992 H         1 UNL       -0.0508 ****
 10 C           1.932893   -0.248441   -0.827932 C         1 UNL       -0.0765 ****
 11 H           1.737777   -0.110988   -1.903618 H         1 UNL       -0.0274 ****
 12 C          -0.109429    1.422736   -0.646450 C         1 UNL       -0.2028 ****
 13 H          -0.160593    1.336922   -1.741654 H         1 UNL        0.0183 ****
 14 H           0.439578    2.345307   -0.432729 H         1 UNL        0.0183 ****
 15 C          -3.856289    0.449108    0.343009 C         1 UNL        0.4919 ****
 16 C           0.601131   -2.257938   -0.118297 C         1 UNL       -0.1183 ****
 17 H           0.280235   -3.152306   -0.661633 H         1 UNL        0.0145 ****
 18 H           0.571268   -2.509313    0.949201 H         1 UNL        0.0145 ****
 19 C          -1.535766    1.558594   -0.074489 C         1 UNL        0.0246 ****
 20 H          -1.461709    1.796476    0.991980 H         1 UNL       -0.0060 ****
 21 H          -2.014925    2.425814   -0.542771 H         1 UNL       -0.0060 ****
 22 C           2.019324   -1.788762   -0.544834 C         1 UNL       -0.0166 ****
 23 H           2.753946   -1.991776    0.243331 H         1 UNL        0.0073 ****
 24 H           2.361488   -2.332263   -1.430477 H         1 UNL        0.0073 ****
 25 C          -2.519364   -2.219825   -0.240751 C         1 UNL        0.1576 ****
 26 H          -2.170895   -3.110267    0.299254 H         1 UNL       -0.0209 ****
 27 H          -2.334218   -2.434923   -1.306418 H         1 UNL       -0.0209 ****
 28 C           3.263674    0.482482   -0.515831 C         1 UNL        0.2850 ****
 29 H           3.499740    0.290855    0.541310 H         1 UNL       -0.0662 ****
 30 C           0.880170    0.335512    1.427062 C         1 UNL       -0.3953 ****
 31 H           1.469631    1.235872    1.628812 H         1 UNL        0.0739 ****
 32 H          -0.045269    0.421393    2.001791 H         1 UNL        0.0739 ****
 33 H           1.435506   -0.514297    1.835520 H         1 UNL        0.0739 ****
 34 C          -4.606334   -0.887451    0.254595 C         1 UNL       -0.1976 ****
 35 C          -4.649752    1.506489   -0.486311 C         1 UNL       -0.2698 ****
 36 H          -4.516595    1.275697   -1.552489 H         1 UNL        0.0379 ****
 37 H          -4.212463    2.498042   -0.326323 H         1 UNL        0.0379 ****
 38 C          -3.995906   -2.049297   -0.021631 C         1 UNL       -0.3258 ****
 39 H          -4.603096   -2.952459   -0.092977 H         1 UNL        0.1440 ****
 40 C          -3.800180    0.892806    1.829494 C         1 UNL       -0.2356 ****
 41 H          -3.439459    1.921634    1.926721 H         1 UNL        0.0370 ****
 42 H          -4.786794    0.853316    2.297737 H         1 UNL        0.0370 ****
 43 H          -3.140904    0.241509    2.411608 H         1 UNL        0.0370 ****
 44 C          -6.103852   -0.843180    0.495842 C         1 UNL       -0.0480 ****
 45 H          -6.533107   -1.837021    0.314471 H         1 UNL        0.0233 ****
 46 H          -6.323118   -0.590529    1.542922 H         1 UNL        0.0233 ****
 47 C          -6.154120    1.569490   -0.184672 C         1 UNL        0.0540 ****
 48 H          -6.338920    1.900989    0.844753 H         1 UNL        0.0162 ****
 49 H          -6.637456    2.301700   -0.841430 H         1 UNL        0.0162 ****
 50 C           4.432953   -0.101080   -1.368539 C         1 UNL       -0.0716 ****
 51 H           4.111263   -1.024029   -1.862064 H         1 UNL       -0.0049 ****
 52 H           4.667305    0.600532   -2.181835 H         1 UNL       -0.0049 ****
 53 C          -6.807017    0.206849   -0.376496 C         1 UNL        0.4437 ****
 54 H          -6.714883   -0.087800   -1.434998 H         1 UNL       -0.0678 ****
 55 C           3.184347    2.008039   -0.711364 C         1 UNL       -0.3160 ****
 56 H           2.823663    2.253226   -1.718075 H         1 UNL        0.0642 ****
 57 H           4.172175    2.465107   -0.598032 H         1 UNL        0.0642 ****
 58 H           2.517734    2.489539    0.008615 H         1 UNL        0.0642 ****
 59 C           5.726210   -0.422027   -0.592729 C         1 UNL        0.1137 ****
 60 H           5.486829   -1.146177    0.197602 H         1 UNL       -0.0306 ****
 61 H           6.412514   -0.935147   -1.278688 H         1 UNL       -0.0306 ****
 62 C           6.437113    0.796181    0.018189 C         1 UNL       -0.1031 ****
 63 H           5.765163    1.287745    0.734301 H         1 UNL       -0.0014 ****
 64 H           6.623830    1.530479   -0.779077 H         1 UNL       -0.0014 ****
 65 C           7.776971    0.515068    0.740061 C         1 UNL        0.4183 ****
 66 H           8.126595    1.489044    1.113409 H         1 UNL       -0.0871 ****
 67 C           8.863996   -0.019000   -0.207590 C         1 UNL       -0.2863 ****
 68 H           8.991046    0.635294   -1.078136 H         1 UNL        0.0529 ****
 69 H           9.830231   -0.082648    0.305824 H         1 UNL        0.0529 ****
 70 H           8.624296   -1.023138   -0.575765 H         1 UNL        0.0529 ****
 71 C           7.610611   -0.402652    1.962776 C         1 UNL       -0.2858 ****
 72 H           6.842222   -0.021968    2.646021 H         1 UNL        0.0531 ****
 73 H           8.548896   -0.477318    2.524252 H         1 UNL        0.0531 ****
 74 H           7.323858   -1.419175    1.669821 H         1 UNL        0.0531 ****
@<TRIPOS>BOND
    1     1     2 1
    2     1    53 1
    3     3     4 1
    4     3    10 1
    5     3    12 1
    6     3    30 1
    7     4     5 1
    8     4     6 1
    9     4    16 1
   10     6     7 1
   11     6     8 1
   12     6    25 1
   13     8     9 1
   14     8    15 1
   15     8    19 1
   16    10    11 1
   17    10    22 1
   18    10    28 1
   19    12    13 1
   20    12    14 1
   21    12    19 1
   22    15    34 1
   23    15    35 1
   24    15    40 1
   25    16    17 1
   26    16    18 1
   27    16    22 1
   28    19    20 1
   29    19    21 1
   30    22    23 1
   31    22    24 1
   32    25    26 1
   33    25    27 1
   34    25    38 1
   35    28    29 1
   36    28    50 1
   37    28    55 1
   38    30    31 1
   39    30    32 1
   40    30    33 1
   41    34    38 1
   42    34    44 1
   43    35    36 1
   44    35    37 1
   45    35    47 1
   46    38    39 1
   47    40    41 1
   48    40    42 1
   49    40    43 1
   50    44    45 1
   51    44    46 1
   52    44    53 1
   53    47    48 1
   54    47    49 1
   55    47    53 1
   56    50    51 1
   57    50    52 1
   58    50    59 1
   59    53    54 1
   60    55    56 1
   61    55    57 1
   62    55    58 1
   63    59    60 1
   64    59    61 1
   65    59    62 1
   66    62    63 1
   67    62    64 1
   68    62    65 1
   69    65    66 1
   70    65    67 1
   71    65    71 1
   72    67    68 1
   73    67    69 1
   74    67    70 1
   75    71    72 1
   76    71    73 1
   77    71    74 1
@<TRIPOS>SUBSTRUCTURE
      1  UNL              1 ****               0 ****  ****  


