@<TRIPOS>MOLECULE
UNL
   74    77     1     0     1
SMALL
USER_CHARGES
@<TRIPOS>ATOM
  1 O           8.151518    0.234664   -0.736382 O         1 UNL       -0.7652 ****
  2 H           8.483939    1.133032   -0.864356 H         1 UNL        0.4258 ****
  3 C          -0.562002   -0.522425    0.346937 C         1 UNL        0.4490 ****
  4 C           0.171015    0.803009   -0.003440 C         1 UNL        0.0504 ****
  5 H           0.163531    0.852261   -1.106233 H         1 UNL       -0.0269 ****
  6 C           1.649125    0.867049    0.403729 C         1 UNL        0.0630 ****
  7 H           1.725590    0.803100    1.498474 H         1 UNL       -0.0402 ****
  8 C           2.422884   -0.318366   -0.230095 C         1 UNL        0.0090 ****
  9 H           2.416392   -0.127008   -1.316042 H         1 UNL       -0.0508 ****
 10 C          -2.000084   -0.189339   -0.184751 C         1 UNL       -0.0765 ****
 11 H          -1.939143   -0.245250   -1.283416 H         1 UNL       -0.0274 ****
 12 C           0.200517   -1.646735   -0.384755 C         1 UNL       -0.2028 ****
 13 H           0.095981   -1.493305   -1.468717 H         1 UNL        0.0183 ****
 14 H          -0.222855   -2.632689   -0.168725 H         1 UNL        0.0183 ****
 15 C           3.935359   -0.346456    0.187195 C         1 UNL        0.4919 ****
 16 C          -0.781376    1.904084    0.484915 C         1 UNL       -0.1183 ****
 17 H          -0.622787    2.855541   -0.032441 H         1 UNL        0.0145 ****
 18 H          -0.633403    2.097868    1.554560 H         1 UNL        0.0145 ****
 19 C           1.696954   -1.665779   -0.010263 C         1 UNL        0.0246 ****
 20 H           1.789583   -1.971655    1.037269 H         1 UNL       -0.0060 ****
 21 H           2.189670   -2.449866   -0.596284 H         1 UNL       -0.0060 ****
 22 C          -2.192639    1.315395    0.211934 C         1 UNL       -0.0166 ****
 23 H          -2.829687    1.397860    1.100707 H         1 UNL        0.0073 ****
 24 H          -2.701219    1.867728   -0.583850 H         1 UNL        0.0073 ****
 25 C           2.282919    2.197436   -0.034136 C         1 UNL        0.1576 ****
 26 H           1.926437    3.014380    0.607320 H         1 UNL       -0.0209 ****
 27 H           1.936672    2.452733   -1.049596 H         1 UNL       -0.0209 ****
 28 C          -3.199133   -1.076021    0.241071 C         1 UNL        0.2850 ****
 29 H          -3.316912   -0.978220    1.331136 H         1 UNL       -0.0662 ****
 30 C          -0.602725   -0.789690    1.869433 C         1 UNL       -0.3953 ****
 31 H          -1.073697   -1.755426    2.080366 H         1 UNL        0.0739 ****
 32 H           0.395407   -0.814303    2.313424 H         1 UNL        0.0739 ****
 33 H          -1.174985   -0.025875    2.404717 H         1 UNL        0.0739 ****
 34 C           4.535492    1.063728    0.096578 C         1 UNL       -0.1976 ****
 35 C           4.708809   -1.268082   -0.806743 C         1 UNL       -0.2698 ****
 36 H           4.412730   -0.994074   -1.828982 H         1 UNL        0.0379 ****
 37 H           4.394380   -2.307136   -0.660289 H         1 UNL        0.0379 ****
 38 C           3.785015    2.169390   -0.018050 C         1 UNL       -0.3258 ****
 39 H           4.287775    3.133449   -0.103519 H         1 UNL        0.1440 ****
 40 C           4.120025   -0.875896    1.634666 C         1 UNL       -0.2356 ****
 41 H           3.873539   -1.939953    1.705706 H         1 UNL        0.0370 ****
 42 H           5.152262   -0.762312    1.975008 H         1 UNL        0.0370 ****
 43 H           3.486162   -0.328851    2.339422 H         1 UNL        0.0370 ****
 44 C           6.049096    1.162170    0.141015 C         1 UNL       -0.0480 ****
 45 H           6.352937    2.203865   -0.024580 H         1 UNL        0.0233 ****
 46 H           6.429900    0.875551    1.131506 H         1 UNL        0.0233 ****
 47 C           6.239054   -1.190405   -0.704595 C         1 UNL        0.0540 ****
 48 H           6.591021   -1.557202    0.267685 H         1 UNL        0.0162 ****
 49 H           6.698202   -1.830775   -1.466290 H         1 UNL        0.0162 ****
 50 C          -4.510856   -0.563966   -0.408415 C         1 UNL       -0.0716 ****
 51 H          -4.534267    0.529060   -0.363775 H         1 UNL       -0.0049 ****
 52 H          -4.498477   -0.824209   -1.478401 H         1 UNL       -0.0049 ****
 53 C           6.726219    0.241410   -0.884441 C         1 UNL        0.4437 ****
 54 H           6.464647    0.583146   -1.899590 H         1 UNL       -0.0678 ****
 55 C          -2.994700   -2.566424   -0.085364 C         1 UNL       -0.3160 ****
 56 H          -2.751309   -2.703391   -1.146384 H         1 UNL        0.0642 ****
 57 H          -3.898859   -3.146369    0.123138 H         1 UNL        0.0642 ****
 58 H          -2.188806   -3.012696    0.501590 H         1 UNL        0.0642 ****
 59 C          -5.801303   -1.102387    0.231302 C         1 UNL        0.1137 ****
 60 H          -5.781253   -2.198728    0.247430 H         1 UNL       -0.0306 ****
 61 H          -5.836192   -0.790096    1.283964 H         1 UNL       -0.0306 ****
 62 C          -7.094705   -0.674585   -0.487398 C         1 UNL       -0.1031 ****
 63 H          -7.945010   -1.183949   -0.009915 H         1 UNL       -0.0014 ****
 64 H          -7.059118   -1.050410   -1.520250 H         1 UNL       -0.0014 ****
 65 C          -7.405100    0.836979   -0.530472 C         1 UNL        0.4183 ****
 66 H          -6.567652    1.347910   -1.026719 H         1 UNL       -0.0871 ****
 67 C          -7.563369    1.443707    0.872691 C         1 UNL       -0.2863 ****
 68 H          -6.651501    1.346028    1.470714 H         1 UNL        0.0529 ****
 69 H          -7.804757    2.511073    0.812590 H         1 UNL        0.0529 ****
 70 H          -8.376232    0.949674    1.420867 H         1 UNL        0.0529 ****
 71 C          -8.664204    1.094561   -1.373832 C         1 UNL       -0.2858 ****
 72 H          -8.551740    0.700398   -2.390417 H         1 UNL        0.0531 ****
 73 H          -8.879384    2.166446   -1.451428 H         1 UNL        0.0531 ****
 74 H          -9.541394    0.611165   -0.924645 H         1 UNL        0.0531 ****
@<TRIPOS>BOND
    1     1     2 1
    2     1    53 1
    3     3     4 1
    4     3    10 1
    5     3    12 1
    6     3    30 1
    7     4     5 1
    8     4     6 1
    9     4    16 1
   10     6     7 1
   11     6     8 1
   12     6    25 1
   13     8     9 1
   14     8    15 1
   15     8    19 1
   16    10    11 1
   17    10    22 1
   18    10    28 1
   19    12    13 1
   20    12    14 1
   21    12    19 1
   22    15    34 1
   23    15    35 1
   24    15    40 1
   25    16    17 1
   26    16    18 1
   27    16    22 1
   28    19    20 1
   29    19    21 1
   30    22    23 1
   31    22    24 1
   32    25    26 1
   33    25    27 1
   34    25    38 1
   35    28    29 1
   36    28    50 1
   37    28    55 1
   38    30    31 1
   39    30    32 1
   40    30    33 1
   41    34    38 1
   42    34    44 1
   43    35    36 1
   44    35    37 1
   45    35    47 1
   46    38    39 1
   47    40    41 1
   48    40    42 1
   49    40    43 1
   50    44    45 1
   51    44    46 1
   52    44    53 1
   53    47    48 1
   54    47    49 1
   55    47    53 1
   56    50    51 1
   57    50    52 1
   58    50    59 1
   59    53    54 1
   60    55    56 1
   61    55    57 1
   62    55    58 1
   63    59    60 1
   64    59    61 1
   65    59    62 1
   66    62    63 1
   67    62    64 1
   68    62    65 1
   69    65    66 1
   70    65    67 1
   71    65    71 1
   72    67    68 1
   73    67    69 1
   74    67    70 1
   75    71    72 1
   76    71    73 1
   77    71    74 1
@<TRIPOS>SUBSTRUCTURE
      1  UNL              1 ****               0 ****  ****  


