@<TRIPOS>MOLECULE
UNL
   74    77     1     0     1
SMALL
USER_CHARGES
@<TRIPOS>ATOM
  1 O          -8.151518   -0.234665   -0.736384 O         1 UNL       -0.7652 ****
  2 H          -8.483939   -1.133033   -0.864359 H         1 UNL        0.4258 ****
  3 C           0.562002    0.522425    0.346938 C         1 UNL        0.4490 ****
  4 C          -0.171015   -0.803009   -0.003441 C         1 UNL        0.0504 ****
  5 H          -0.163531   -0.852259   -1.106233 H         1 UNL       -0.0269 ****
  6 C          -1.649125   -0.867049    0.403729 C         1 UNL        0.0630 ****
  7 H          -1.725589   -0.803097    1.498474 H         1 UNL       -0.0402 ****
  8 C          -2.422884    0.318366   -0.230096 C         1 UNL        0.0090 ****
  9 H          -2.416392    0.127007   -1.316043 H         1 UNL       -0.0508 ****
 10 C           2.000085    0.189339   -0.184750 C         1 UNL       -0.0765 ****
 11 H           1.939142    0.245250   -1.283415 H         1 UNL       -0.0274 ****
 12 C          -0.200517    1.646736   -0.384753 C         1 UNL       -0.2028 ****
 13 H          -0.095979    1.493308   -1.468715 H         1 UNL        0.0183 ****
 14 H           0.222854    2.632690   -0.168721 H         1 UNL        0.0183 ****
 15 C          -3.935359    0.346455    0.187194 C         1 UNL        0.4919 ****
 16 C           0.781376   -1.904083    0.484914 C         1 UNL       -0.1183 ****
 17 H           0.622786   -2.855542   -0.032441 H         1 UNL        0.0145 ****
 18 H           0.633403   -2.097868    1.554559 H         1 UNL        0.0145 ****
 19 C          -1.696954    1.665779   -0.010264 C         1 UNL        0.0246 ****
 20 H          -1.789585    1.971656    1.037267 H         1 UNL       -0.0060 ****
 21 H          -2.189670    2.449866   -0.596286 H         1 UNL       -0.0060 ****
 22 C           2.192639   -1.315396    0.211934 C         1 UNL       -0.0166 ****
 23 H           2.829687   -1.397862    1.100706 H         1 UNL        0.0073 ****
 24 H           2.701218   -1.867728   -0.583851 H         1 UNL        0.0073 ****
 25 C          -2.282919   -2.197436   -0.034133 C         1 UNL        0.1576 ****
 26 H          -1.926438   -3.014378    0.607327 H         1 UNL       -0.0209 ****
 27 H          -1.936668   -2.452739   -1.049590 H         1 UNL       -0.0209 ****
 28 C           3.199134    1.076020    0.241072 C         1 UNL        0.2850 ****
 29 H           3.316914    0.978220    1.331137 H         1 UNL       -0.0662 ****
 30 C           0.602725    0.789690    1.869434 C         1 UNL       -0.3953 ****
 31 H           1.073700    1.755424    2.080367 H         1 UNL        0.0739 ****
 32 H          -0.395407    0.814306    2.313425 H         1 UNL        0.0739 ****
 33 H           1.174982    0.025873    2.404718 H         1 UNL        0.0739 ****
 34 C          -4.535492   -1.063728    0.096576 C         1 UNL       -0.1976 ****
 35 C          -4.708811    1.268084   -0.806742 C         1 UNL       -0.2698 ****
 36 H          -4.412732    0.994079   -1.828982 H         1 UNL        0.0379 ****
 37 H          -4.394381    2.307137   -0.660285 H         1 UNL        0.0379 ****
 38 C          -3.785014   -2.169390   -0.018051 C         1 UNL       -0.3258 ****
 39 H          -4.287774   -3.133448   -0.103522 H         1 UNL        0.1440 ****
 40 C          -4.120025    0.875893    1.634667 C         1 UNL       -0.2356 ****
 41 H          -3.873536    1.939949    1.705709 H         1 UNL        0.0370 ****
 42 H          -5.152263    0.762311    1.975006 H         1 UNL        0.0370 ****
 43 H          -3.486164    0.328844    2.339422 H         1 UNL        0.0370 ****
 44 C          -6.049094   -1.162169    0.141013 C         1 UNL       -0.0480 ****
 45 H          -6.352937   -2.203865   -0.024582 H         1 UNL        0.0233 ****
 46 H          -6.429901   -0.875551    1.131504 H         1 UNL        0.0233 ****
 47 C          -6.239055    1.190407   -0.704593 C         1 UNL        0.0540 ****
 48 H          -6.591022    1.557200    0.267688 H         1 UNL        0.0162 ****
 49 H          -6.698205    1.830779   -1.466285 H         1 UNL        0.0162 ****
 50 C           4.510856    0.563966   -0.408415 C         1 UNL       -0.0716 ****
 51 H           4.534268   -0.529060   -0.363774 H         1 UNL       -0.0049 ****
 52 H           4.498477    0.824207   -1.478401 H         1 UNL       -0.0049 ****
 53 C          -6.726219   -0.241408   -0.884442 C         1 UNL        0.4437 ****
 54 H          -6.464646   -0.583142   -1.899591 H         1 UNL       -0.0678 ****
 55 C           2.994701    2.566424   -0.085363 C         1 UNL       -0.3160 ****
 56 H           2.751312    2.703391   -1.146384 H         1 UNL        0.0642 ****
 57 H           3.898858    3.146369    0.123142 H         1 UNL        0.0642 ****
 58 H           2.188805    3.012695    0.501588 H         1 UNL        0.0642 ****
 59 C           5.801303    1.102387    0.231301 C         1 UNL        0.1137 ****
 60 H           5.781253    2.198728    0.247432 H         1 UNL       -0.0306 ****
 61 H           5.836191    0.790095    1.283964 H         1 UNL       -0.0306 ****
 62 C           7.094705    0.674585   -0.487398 C         1 UNL       -0.1031 ****
 63 H           7.945010    1.183949   -0.009915 H         1 UNL       -0.0014 ****
 64 H           7.059119    1.050412   -1.520249 H         1 UNL       -0.0014 ****
 65 C           7.405099   -0.836978   -0.530474 C         1 UNL        0.4183 ****
 66 H           6.567653   -1.347908   -1.026723 H         1 UNL       -0.0871 ****
 67 C           7.563365   -1.443709    0.872689 C         1 UNL       -0.2863 ****
 68 H           6.651495   -1.346034    1.470708 H         1 UNL        0.0529 ****
 69 H           7.804756   -2.511075    0.812586 H         1 UNL        0.0529 ****
 70 H           8.376224   -0.949676    1.420869 H         1 UNL        0.0529 ****
 71 C           8.664206   -1.094560   -1.373830 C         1 UNL       -0.2858 ****
 72 H           8.551747   -0.700393   -2.390414 H         1 UNL        0.0531 ****
 73 H           8.879383   -2.166445   -1.451430 H         1 UNL        0.0531 ****
 74 H           9.541396   -0.611168   -0.924638 H         1 UNL        0.0531 ****
@<TRIPOS>BOND
    1     1     2 1
    2     1    53 1
    3     3     4 1
    4     3    10 1
    5     3    12 1
    6     3    30 1
    7     4     5 1
    8     4     6 1
    9     4    16 1
   10     6     7 1
   11     6     8 1
   12     6    25 1
   13     8     9 1
   14     8    15 1
   15     8    19 1
   16    10    11 1
   17    10    22 1
   18    10    28 1
   19    12    13 1
   20    12    14 1
   21    12    19 1
   22    15    34 1
   23    15    35 1
   24    15    40 1
   25    16    17 1
   26    16    18 1
   27    16    22 1
   28    19    20 1
   29    19    21 1
   30    22    23 1
   31    22    24 1
   32    25    26 1
   33    25    27 1
   34    25    38 1
   35    28    29 1
   36    28    50 1
   37    28    55 1
   38    30    31 1
   39    30    32 1
   40    30    33 1
   41    34    38 1
   42    34    44 1
   43    35    36 1
   44    35    37 1
   45    35    47 1
   46    38    39 1
   47    40    41 1
   48    40    42 1
   49    40    43 1
   50    44    45 1
   51    44    46 1
   52    44    53 1
   53    47    48 1
   54    47    49 1
   55    47    53 1
   56    50    51 1
   57    50    52 1
   58    50    59 1
   59    53    54 1
   60    55    56 1
   61    55    57 1
   62    55    58 1
   63    59    60 1
   64    59    61 1
   65    59    62 1
   66    62    63 1
   67    62    64 1
   68    62    65 1
   69    65    66 1
   70    65    67 1
   71    65    71 1
   72    67    68 1
   73    67    69 1
   74    67    70 1
   75    71    72 1
   76    71    73 1
   77    71    74 1
@<TRIPOS>SUBSTRUCTURE
      1  UNL              1 ****               0 ****  ****  


