@<TRIPOS>MOLECULE
UNL
   75    78     1     0     1
SMALL
USER_CHARGES
@<TRIPOS>ATOM
  1 O          -2.273078   -3.035377    1.602069 O         1 UNL       -0.6631 ****
  2 H          -2.486463   -2.574424    2.425664 H         1 UNL        0.4139 ****
  3 O          -7.542517    1.403968   -0.369516 O         1 UNL       -0.6979 ****
  4 H          -7.568292    2.007939    0.385944 H         1 UNL        0.4112 ****
  5 C           1.052562   -0.568230   -0.294276 C         1 UNL        0.1021 ****
  6 C          -0.087141   -1.608125   -0.125621 C         1 UNL        0.0167 ****
  7 H          -0.327945   -1.937648   -1.150787 H         1 UNL       -0.0002 ****
  8 C          -1.402347   -1.036254    0.430297 C         1 UNL       -0.0185 ****
  9 H          -1.242532   -0.663783    1.452751 H         1 UNL        0.0964 ****
 10 C          -1.884413    0.132066   -0.479410 C         1 UNL        0.0133 ****
 11 H          -2.150352   -0.335991   -1.441575 H         1 UNL        0.0165 ****
 12 C           2.169919   -1.498337   -0.862312 C         1 UNL        0.0393 ****
 13 H           1.796633   -1.774122   -1.859199 H         1 UNL        0.0083 ****
 14 C           0.555155    0.510220   -1.270436 C         1 UNL       -0.0952 ****
 15 H           0.392138    0.048358   -2.255036 H         1 UNL        0.0192 ****
 16 H           1.308003    1.296789   -1.414231 H         1 UNL        0.0192 ****
 17 C          -3.202924    0.809029    0.036336 C         1 UNL        0.0610 ****
 18 C           0.597702   -2.805087    0.565232 C         1 UNL       -0.0909 ****
 19 H           0.083244   -3.747147    0.361385 H         1 UNL        0.0355 ****
 20 H           0.585729   -2.683677    1.653359 H         1 UNL        0.0355 ****
 21 C          -0.758097    1.151922   -0.782358 C         1 UNL       -0.0821 ****
 22 H          -0.546878    1.748480    0.111122 H         1 UNL        0.0409 ****
 23 H          -1.104178    1.860610   -1.542687 H         1 UNL        0.0409 ****
 24 C           2.057671   -2.782485    0.015552 C         1 UNL       -0.0982 ****
 25 H           2.771306   -2.764759    0.843824 H         1 UNL        0.0314 ****
 26 H           2.286679   -3.679738   -0.569124 H         1 UNL        0.0314 ****
 27 C          -2.494609   -2.119710    0.511410 C         1 UNL        0.1788 ****
 28 H          -2.423062   -2.763326   -0.376979 H         1 UNL        0.1129 ****
 29 C           3.592941   -0.910556   -1.117579 C         1 UNL        0.0812 ****
 30 H           3.449764    0.151783   -1.362904 H         1 UNL       -0.0137 ****
 31 C           1.465070    0.075168    1.047822 C         1 UNL       -0.1676 ****
 32 H           0.630286    0.584829    1.536027 H         1 UNL        0.0332 ****
 33 H           1.851033   -0.661437    1.757744 H         1 UNL        0.0332 ****
 34 H           2.246892    0.824446    0.887067 H         1 UNL        0.0332 ****
 35 C          -4.220589   -0.266516    0.433103 C         1 UNL       -0.0653 ****
 36 C          -3.817030    1.655382   -1.122595 C         1 UNL       -0.0395 ****
 37 H          -3.813948    1.042262   -2.034397 H         1 UNL        0.0226 ****
 38 H          -3.172619    2.517125   -1.325703 H         1 UNL        0.0226 ****
 39 C          -3.883974   -1.553688    0.601625 C         1 UNL       -0.3319 ****
 40 H          -4.654933   -2.282874    0.850562 H         1 UNL        0.1745 ****
 41 C          -2.938380    1.723849    1.262290 C         1 UNL       -0.0509 ****
 42 H          -2.359226    2.609024    0.981956 H         1 UNL        0.0125 ****
 43 H          -3.871393    2.077958    1.708338 H         1 UNL        0.0125 ****
 44 H          -2.389789    1.190024    2.044319 H         1 UNL        0.0125 ****
 45 C          -5.659004    0.177149    0.622427 C         1 UNL       -0.2132 ****
 46 H          -6.302428   -0.689904    0.801108 H         1 UNL        0.0907 ****
 47 H          -5.736502    0.817800    1.515795 H         1 UNL        0.0907 ****
 48 C          -5.251828    2.147812   -0.877647 C         1 UNL       -0.1299 ****
 49 H          -5.276892    2.857403   -0.037242 H         1 UNL        0.0478 ****
 50 H          -5.615912    2.691062   -1.757055 H         1 UNL        0.0478 ****
 51 C           4.566964   -0.993316    0.082333 C         1 UNL       -0.0053 ****
 52 H           4.083535   -0.593810    0.979617 H         1 UNL       -0.0058 ****
 53 H           4.767185   -2.051037    0.297577 H         1 UNL       -0.0058 ****
 54 C          -6.191440    0.981604   -0.572644 C         1 UNL        0.2995 ****
 55 H          -6.244983    0.324092   -1.448920 H         1 UNL        0.0872 ****
 56 C           4.208638   -1.578690   -2.364586 C         1 UNL       -0.1124 ****
 57 H           4.373119   -2.650290   -2.194344 H         1 UNL        0.0211 ****
 58 H           5.171185   -1.136133   -2.638013 H         1 UNL        0.0211 ****
 59 H           3.545429   -1.477975   -3.230690 H         1 UNL        0.0211 ****
 60 C           5.935301   -0.300541   -0.100484 C         1 UNL        0.0035 ****
 61 H           6.531087   -0.496034    0.800246 H         1 UNL        0.0025 ****
 62 H           6.483324   -0.787146   -0.916415 H         1 UNL        0.0025 ****
 63 C           5.916753    1.214451   -0.377290 C         1 UNL       -0.0683 ****
 64 H           5.372248    1.407019   -1.311623 H         1 UNL        0.0052 ****
 65 H           6.950692    1.540554   -0.564733 H         1 UNL        0.0052 ****
 66 C           5.325643    2.115659    0.727417 C         1 UNL        0.2615 ****
 67 H           4.293429    1.791770    0.921613 H         1 UNL       -0.0409 ****
 68 C           5.267782    3.575019    0.247797 C         1 UNL       -0.2053 ****
 69 H           6.275227    3.957839    0.039856 H         1 UNL        0.0398 ****
 70 H           4.815282    4.226077    1.004567 H         1 UNL        0.0398 ****
 71 H           4.680080    3.670831   -0.672524 H         1 UNL        0.0398 ****
 72 C           6.104203    2.014428    2.048900 C         1 UNL       -0.2124 ****
 73 H           7.152906    2.305903    1.905633 H         1 UNL        0.0417 ****
 74 H           5.675810    2.679803    2.807124 H         1 UNL        0.0417 ****
 75 H           6.093663    0.999431    2.458751 H         1 UNL        0.0417 ****
@<TRIPOS>BOND
    1     1     2 1
    2     1    27 1
    3     3     4 1
    4     3    54 1
    5     5     6 1
    6     5    12 1
    7     5    14 1
    8     5    31 1
    9     6     7 1
   10     6     8 1
   11     6    18 1
   12     8     9 1
   13     8    10 1
   14     8    27 1
   15    10    11 1
   16    10    17 1
   17    10    21 1
   18    12    13 1
   19    12    24 1
   20    12    29 1
   21    14    15 1
   22    14    16 1
   23    14    21 1
   24    17    35 1
   25    17    36 1
   26    17    41 1
   27    18    19 1
   28    18    20 1
   29    18    24 1
   30    21    22 1
   31    21    23 1
   32    24    25 1
   33    24    26 1
   34    27    28 1
   35    27    39 1
   36    29    30 1
   37    29    51 1
   38    29    56 1
   39    31    32 1
   40    31    33 1
   41    31    34 1
   42    35    39 1
   43    35    45 1
   44    36    37 1
   45    36    38 1
   46    36    48 1
   47    39    40 1
   48    41    42 1
   49    41    43 1
   50    41    44 1
   51    45    46 1
   52    45    47 1
   53    45    54 1
   54    48    49 1
   55    48    50 1
   56    48    54 1
   57    51    52 1
   58    51    53 1
   59    51    60 1
   60    54    55 1
   61    56    57 1
   62    56    58 1
   63    56    59 1
   64    60    61 1
   65    60    62 1
   66    60    63 1
   67    63    64 1
   68    63    65 1
   69    63    66 1
   70    66    67 1
   71    66    68 1
   72    66    72 1
   73    68    69 1
   74    68    70 1
   75    68    71 1
   76    72    73 1
   77    72    74 1
   78    72    75 1
@<TRIPOS>SUBSTRUCTURE
      1  UNL              1 ****               0 ****  ****  


