@<TRIPOS>MOLECULE
UNL
   75    78     1     0     1
SMALL
USER_CHARGES
@<TRIPOS>ATOM
  1 O           1.973370    3.343909   -0.017760 O         1 UNL       -0.6631 ****
  2 H           2.585121    3.457456    0.723307 H         1 UNL        0.4139 ****
  3 O           7.535997   -0.788018   -1.840386 O         1 UNL       -0.6979 ****
  4 H           8.008568   -0.839637   -0.997668 H         1 UNL        0.4112 ****
  5 C          -0.736576   -0.122030    1.194076 C         1 UNL        0.1021 ****
  6 C          -0.017788    0.942409    0.315130 C         1 UNL        0.0167 ****
  7 H          -0.240253    0.647488   -0.725181 H         1 UNL       -0.0002 ****
  8 C           1.518154    0.948104    0.414416 C         1 UNL       -0.0185 ****
  9 H           1.820873    1.212489    1.438394 H         1 UNL        0.0964 ****
 10 C           2.067639   -0.462501    0.061336 C         1 UNL        0.0133 ****
 11 H           1.834791   -0.612735   -1.005789 H         1 UNL        0.0165 ****
 12 C          -2.229646    0.191783    0.831980 C         1 UNL        0.0393 ****
 13 H          -2.373394   -0.195282   -0.187746 H         1 UNL        0.0083 ****
 14 C          -0.206073   -1.498522    0.748107 C         1 UNL       -0.0952 ****
 15 H          -0.521440   -1.678226   -0.289913 H         1 UNL        0.0192 ****
 16 H          -0.631031   -2.310420    1.346964 H         1 UNL        0.0192 ****
 17 C           3.629328   -0.563955    0.168649 C         1 UNL        0.0610 ****
 18 C          -0.802177    2.239376    0.574083 C         1 UNL       -0.0909 ****
 19 H          -0.697008    2.958861   -0.241243 H         1 UNL        0.0355 ****
 20 H          -0.430330    2.743510    1.472321 H         1 UNL        0.0355 ****
 21 C           1.329997   -1.577583    0.837628 C         1 UNL       -0.0821 ****
 22 H           1.621107   -1.548712    1.893179 H         1 UNL        0.0409 ****
 23 H           1.648486   -2.557082    0.463987 H         1 UNL        0.0409 ****
 24 C          -2.264815    1.753631    0.765828 C         1 UNL       -0.0982 ****
 25 H          -2.690599    2.164352    1.689086 H         1 UNL        0.0314 ****
 26 H          -2.912755    2.095266   -0.047884 H         1 UNL        0.0314 ****
 27 C           2.134761    2.003823   -0.523882 C         1 UNL        0.1788 ****
 28 H           1.565993    2.019006   -1.464511 H         1 UNL        0.1129 ****
 29 C          -3.365867   -0.390833    1.709145 C         1 UNL        0.0812 ****
 30 H          -3.226936    0.001999    2.727053 H         1 UNL       -0.0137 ****
 31 C          -0.489952    0.094926    2.704461 C         1 UNL       -0.1676 ****
 32 H           0.573383    0.087785    2.958016 H         1 UNL        0.0332 ****
 33 H          -0.897730    1.048502    3.052621 H         1 UNL        0.0332 ****
 34 H          -0.966222   -0.697806    3.291216 H         1 UNL        0.0332 ****
 35 C           4.277687    0.650712   -0.504567 C         1 UNL       -0.0653 ****
 36 C           4.099163   -1.847207   -0.585548 C         1 UNL       -0.0395 ****
 37 H           3.594256   -1.876270   -1.561005 H         1 UNL        0.0226 ****
 38 H           3.766375   -2.734788   -0.037249 H         1 UNL        0.0226 ****
 39 C           3.585229    1.752782   -0.827794 C         1 UNL       -0.3319 ****
 40 H           4.089751    2.574991   -1.335248 H         1 UNL        0.1745 ****
 41 C           4.101982   -0.628501    1.645791 C         1 UNL       -0.0509 ****
 42 H           3.808277   -1.571153    2.117715 H         1 UNL        0.0125 ****
 43 H           5.189861   -0.554869    1.723251 H         1 UNL        0.0125 ****
 44 H           3.681006    0.193381    2.232992 H         1 UNL        0.0125 ****
 45 C           5.760972    0.563425   -0.811190 C         1 UNL       -0.2132 ****
 46 H           6.082584    1.441027   -1.380484 H         1 UNL        0.0907 ****
 47 H           6.335935    0.568293    0.129032 H         1 UNL        0.0907 ****
 48 C           5.614058   -1.942296   -0.824209 C         1 UNL       -0.1299 ****
 49 H           6.149888   -2.029519    0.132742 H         1 UNL        0.0478 ****
 50 H           5.846364   -2.847465   -1.396702 H         1 UNL        0.0478 ****
 51 C          -4.766061    0.108228    1.261457 C         1 UNL       -0.0053 ****
 52 H          -5.499533   -0.267937    1.989137 H         1 UNL       -0.0058 ****
 53 H          -4.804563    1.201847    1.339671 H         1 UNL       -0.0058 ****
 54 C           6.132584   -0.716176   -1.575039 C         1 UNL        0.2995 ****
 55 H           5.672964   -0.682864   -2.570373 H         1 UNL        0.0872 ****
 56 C          -3.352623   -1.928057    1.807766 C         1 UNL       -0.1124 ****
 57 H          -3.316235   -2.401498    0.820225 H         1 UNL        0.0211 ****
 58 H          -4.256884   -2.286578    2.313879 H         1 UNL        0.0211 ****
 59 H          -2.495801   -2.294566    2.378840 H         1 UNL        0.0211 ****
 60 C          -5.226318   -0.300459   -0.148011 C         1 UNL        0.0035 ****
 61 H          -4.525753    0.094356   -0.893921 H         1 UNL        0.0025 ****
 62 H          -5.197858   -1.392623   -0.243368 H         1 UNL        0.0025 ****
 63 C          -6.644869    0.206516   -0.456442 C         1 UNL       -0.0683 ****
 64 H          -6.660753    1.299677   -0.337547 H         1 UNL        0.0052 ****
 65 H          -7.332129   -0.189708    0.305200 H         1 UNL        0.0052 ****
 66 C          -7.216620   -0.137767   -1.851600 C         1 UNL        0.2615 ****
 67 H          -8.224709    0.301812   -1.880603 H         1 UNL       -0.0409 ****
 68 C          -7.378525   -1.651441   -2.069200 C         1 UNL       -0.2053 ****
 69 H          -6.408284   -2.159179   -2.117781 H         1 UNL        0.0398 ****
 70 H          -7.901294   -1.856273   -3.010498 H         1 UNL        0.0398 ****
 71 H          -7.956687   -2.111633   -1.259203 H         1 UNL        0.0398 ****
 72 C          -6.413299    0.501712   -2.996344 C         1 UNL       -0.2124 ****
 73 H          -5.409107    0.069628   -3.076608 H         1 UNL        0.0417 ****
 74 H          -6.913606    0.344756   -3.958811 H         1 UNL        0.0417 ****
 75 H          -6.301707    1.582607   -2.850494 H         1 UNL        0.0417 ****
@<TRIPOS>BOND
    1     1     2 1
    2     1    27 1
    3     3     4 1
    4     3    54 1
    5     5     6 1
    6     5    12 1
    7     5    14 1
    8     5    31 1
    9     6     7 1
   10     6     8 1
   11     6    18 1
   12     8     9 1
   13     8    10 1
   14     8    27 1
   15    10    11 1
   16    10    17 1
   17    10    21 1
   18    12    13 1
   19    12    24 1
   20    12    29 1
   21    14    15 1
   22    14    16 1
   23    14    21 1
   24    17    35 1
   25    17    36 1
   26    17    41 1
   27    18    19 1
   28    18    20 1
   29    18    24 1
   30    21    22 1
   31    21    23 1
   32    24    25 1
   33    24    26 1
   34    27    28 1
   35    27    39 1
   36    29    30 1
   37    29    51 1
   38    29    56 1
   39    31    32 1
   40    31    33 1
   41    31    34 1
   42    35    39 1
   43    35    45 1
   44    36    37 1
   45    36    38 1
   46    36    48 1
   47    39    40 1
   48    41    42 1
   49    41    43 1
   50    41    44 1
   51    45    46 1
   52    45    47 1
   53    45    54 1
   54    48    49 1
   55    48    50 1
   56    48    54 1
   57    51    52 1
   58    51    53 1
   59    51    60 1
   60    54    55 1
   61    56    57 1
   62    56    58 1
   63    56    59 1
   64    60    61 1
   65    60    62 1
   66    60    63 1
   67    63    64 1
   68    63    65 1
   69    63    66 1
   70    66    67 1
   71    66    68 1
   72    66    72 1
   73    68    69 1
   74    68    70 1
   75    68    71 1
   76    72    73 1
   77    72    74 1
   78    72    75 1
@<TRIPOS>SUBSTRUCTURE
      1  UNL              1 ****               0 ****  ****  


