@<TRIPOS>MOLECULE
UNL
   75    78     1     0     1
SMALL
USER_CHARGES
@<TRIPOS>ATOM
  1 O          -2.471735   -2.958441   -1.817247 O         1 UNL       -0.6631 ****
  2 H          -3.060179   -3.332624   -1.146405 H         1 UNL        0.4139 ****
  3 O          -6.877120    2.484440   -0.302007 O         1 UNL       -0.6979 ****
  4 H          -7.283957    2.168401    0.516997 H         1 UNL        0.4112 ****
  5 C           1.078034   -1.270101    0.509618 C         1 UNL        0.1021 ****
  6 C           0.073120   -1.551614   -0.647883 C         1 UNL        0.0167 ****
  7 H           0.314006   -0.804665   -1.423648 H         1 UNL       -0.0002 ****
  8 C          -1.408016   -1.309782   -0.306239 C         1 UNL       -0.0185 ****
  9 H          -1.729821   -2.015568    0.473348 H         1 UNL        0.0964 ****
 10 C          -1.593830    0.146706    0.207101 C         1 UNL        0.0133 ****
 11 H          -1.374642    0.795410   -0.657058 H         1 UNL        0.0165 ****
 12 C           2.415032   -1.610156   -0.235981 C         1 UNL        0.0393 ****
 13 H           2.520580   -0.807203   -0.978326 H         1 UNL        0.0083 ****
 14 C           0.894118    0.202616    0.919757 C         1 UNL       -0.0952 ****
 15 H           1.190918    0.847063    0.080362 H         1 UNL        0.0192 ****
 16 H           1.543264    0.465972    1.763163 H         1 UNL        0.0192 ****
 17 C          -3.072740    0.475633    0.614204 C         1 UNL        0.0610 ****
 18 C           0.517082   -2.917120   -1.205519 C         1 UNL       -0.0909 ****
 19 H           0.197569   -3.066739   -2.239380 H         1 UNL        0.0355 ****
 20 H           0.068969   -3.732924   -0.628405 H         1 UNL        0.0355 ****
 21 C          -0.565684    0.509307    1.304473 C         1 UNL       -0.0821 ****
 22 H          -0.805159   -0.025853    2.229532 H         1 UNL        0.0409 ****
 23 H          -0.645511    1.575608    1.543123 H         1 UNL        0.0409 ****
 24 C           2.063419   -2.897606   -1.046592 C         1 UNL       -0.0982 ****
 25 H           2.411380   -3.799357   -0.532364 H         1 UNL        0.0314 ****
 26 H           2.573536   -2.883804   -2.016256 H         1 UNL        0.0314 ****
 27 C          -2.309982   -1.554905   -1.531642 C         1 UNL        0.1788 ****
 28 H          -1.803526   -1.171434   -2.428823 H         1 UNL        0.1129 ****
 29 C           3.805829   -1.690088    0.458162 C         1 UNL        0.0812 ****
 30 H           4.482075   -1.990419   -0.359194 H         1 UNL       -0.0137 ****
 31 C           0.827900   -2.195750    1.722997 C         1 UNL       -0.1676 ****
 32 H          -0.217427   -2.179035    2.042638 H         1 UNL        0.0332 ****
 33 H           1.081065   -3.236739    1.507700 H         1 UNL        0.0332 ****
 34 H           1.429312   -1.880625    2.580671 H         1 UNL        0.0332 ****
 35 C          -4.036455   -0.040590   -0.459898 C         1 UNL       -0.0653 ****
 36 C          -3.232464    2.025746    0.705644 C         1 UNL       -0.0395 ****
 37 H          -2.779712    2.470933   -0.191065 H         1 UNL        0.0226 ****
 38 H          -2.661247    2.401591    1.561004 H         1 UNL        0.0226 ****
 39 C          -3.661010   -0.907336   -1.411855 C         1 UNL       -0.3319 ****
 40 H          -4.379186   -1.215477   -2.171685 H         1 UNL        0.1745 ****
 41 C          -3.450568   -0.165866    1.976234 C         1 UNL       -0.0509 ****
 42 H          -2.906262    0.302387    2.802072 H         1 UNL        0.0125 ****
 43 H          -4.516897   -0.056365    2.190344 H         1 UNL        0.0125 ****
 44 H          -3.228696   -1.237428    1.984932 H         1 UNL        0.0125 ****
 45 C          -5.460817    0.480203   -0.420640 C         1 UNL       -0.2132 ****
 46 H          -6.019256    0.122267   -1.291119 H         1 UNL        0.0907 ****
 47 H          -5.976686    0.086060    0.469949 H         1 UNL        0.0907 ****
 48 C          -4.682215    2.523936    0.811368 C         1 UNL       -0.1299 ****
 49 H          -5.135955    2.189762    1.756249 H         1 UNL        0.0478 ****
 50 H          -4.701112    3.619604    0.825144 H         1 UNL        0.0478 ****
 51 C           4.350084   -0.339606    0.982049 C         1 UNL       -0.0053 ****
 52 H           3.696513    0.041060    1.778219 H         1 UNL       -0.0058 ****
 53 H           5.316270   -0.541729    1.466592 H         1 UNL       -0.0058 ****
 54 C          -5.527932    2.013274   -0.354838 C         1 UNL        0.2995 ****
 55 H          -5.135916    2.427271   -1.291845 H         1 UNL        0.0872 ****
 56 C           3.974031   -2.759410    1.556733 C         1 UNL       -0.1124 ****
 57 H           3.521467   -2.450848    2.503642 H         1 UNL        0.0211 ****
 58 H           5.040490   -2.924602    1.747813 H         1 UNL        0.0211 ****
 59 H           3.541069   -3.724450    1.278264 H         1 UNL        0.0211 ****
 60 C           4.570772    0.757928   -0.070728 C         1 UNL        0.0035 ****
 61 H           5.180049    0.346319   -0.886949 H         1 UNL        0.0025 ****
 62 H           3.613330    1.049551   -0.516473 H         1 UNL        0.0025 ****
 63 C           5.259845    1.998902    0.520311 C         1 UNL       -0.0683 ****
 64 H           6.217504    1.690735    0.964254 H         1 UNL        0.0052 ****
 65 H           4.648789    2.376328    1.353186 H         1 UNL        0.0052 ****
 66 C           5.530744    3.170379   -0.452310 C         1 UNL        0.2615 ****
 67 H           6.025718    3.949857    0.145757 H         1 UNL       -0.0409 ****
 68 C           4.238852    3.786652   -1.014450 C         1 UNL       -0.2053 ****
 69 H           3.713316    3.089887   -1.677654 H         1 UNL        0.0398 ****
 70 H           4.458784    4.688286   -1.597475 H         1 UNL        0.0398 ****
 71 H           3.548717    4.069048   -0.210626 H         1 UNL        0.0398 ****
 72 C           6.498201    2.788177   -1.584850 C         1 UNL       -0.2124 ****
 73 H           6.052235    2.055907   -2.267748 H         1 UNL        0.0417 ****
 74 H           6.768175    3.667710   -2.180452 H         1 UNL        0.0417 ****
 75 H           7.424805    2.355688   -1.189314 H         1 UNL        0.0417 ****
@<TRIPOS>BOND
    1     1     2 1
    2     1    27 1
    3     3     4 1
    4     3    54 1
    5     5     6 1
    6     5    12 1
    7     5    14 1
    8     5    31 1
    9     6     7 1
   10     6     8 1
   11     6    18 1
   12     8     9 1
   13     8    10 1
   14     8    27 1
   15    10    11 1
   16    10    17 1
   17    10    21 1
   18    12    13 1
   19    12    24 1
   20    12    29 1
   21    14    15 1
   22    14    16 1
   23    14    21 1
   24    17    35 1
   25    17    36 1
   26    17    41 1
   27    18    19 1
   28    18    20 1
   29    18    24 1
   30    21    22 1
   31    21    23 1
   32    24    25 1
   33    24    26 1
   34    27    28 1
   35    27    39 1
   36    29    30 1
   37    29    51 1
   38    29    56 1
   39    31    32 1
   40    31    33 1
   41    31    34 1
   42    35    39 1
   43    35    45 1
   44    36    37 1
   45    36    38 1
   46    36    48 1
   47    39    40 1
   48    41    42 1
   49    41    43 1
   50    41    44 1
   51    45    46 1
   52    45    47 1
   53    45    54 1
   54    48    49 1
   55    48    50 1
   56    48    54 1
   57    51    52 1
   58    51    53 1
   59    51    60 1
   60    54    55 1
   61    56    57 1
   62    56    58 1
   63    56    59 1
   64    60    61 1
   65    60    62 1
   66    60    63 1
   67    63    64 1
   68    63    65 1
   69    63    66 1
   70    66    67 1
   71    66    68 1
   72    66    72 1
   73    68    69 1
   74    68    70 1
   75    68    71 1
   76    72    73 1
   77    72    74 1
   78    72    75 1
@<TRIPOS>SUBSTRUCTURE
      1  UNL              1 ****               0 ****  ****  


