@<TRIPOS>MOLECULE
UNL
   75    78     1     0     1
SMALL
USER_CHARGES
@<TRIPOS>ATOM
  1 O           2.537903    3.106174    1.320797 O         1 UNL       -0.6631 ****
  2 H           2.755824    2.722681    2.182052 H         1 UNL        0.4139 ****
  3 O           7.682024   -1.614380   -0.298679 O         1 UNL       -0.6979 ****
  4 H           7.712894   -2.139080    0.513664 H         1 UNL        0.4112 ****
  5 C          -0.870284    0.536509   -0.265716 C         1 UNL        0.1021 ****
  6 C           0.293258    1.562175   -0.224697 C         1 UNL        0.0167 ****
  7 H           0.521856    1.778217   -1.282468 H         1 UNL       -0.0002 ****
  8 C           1.606241    1.021283    0.366126 C         1 UNL       -0.0185 ****
  9 H           1.456330    0.756313    1.423007 H         1 UNL        0.0964 ****
 10 C           2.047993   -0.242898   -0.428857 C         1 UNL        0.0133 ****
 11 H           2.303028    0.119782   -1.438278 H         1 UNL        0.0165 ****
 12 C          -1.978431    1.425768   -0.911792 C         1 UNL        0.0393 ****
 13 H          -1.627696    1.575045   -1.943460 H         1 UNL        0.0083 ****
 14 C          -0.414255   -0.648766   -1.132195 C         1 UNL       -0.0952 ****
 15 H          -0.263090   -0.296087   -2.162743 H         1 UNL        0.0192 ****
 16 H          -1.185175   -1.429636   -1.178180 H         1 UNL        0.0192 ****
 17 C           3.363754   -0.891757    0.128224 C         1 UNL        0.0610 ****
 18 C          -0.354492    2.839451    0.347443 C         1 UNL       -0.0909 ****
 19 H           0.181725    3.743187    0.048402 H         1 UNL        0.0355 ****
 20 H          -0.337079    2.825916    1.442228 H         1 UNL        0.0355 ****
 21 C           0.896585   -1.264458   -0.605191 C         1 UNL       -0.0821 ****
 22 H           0.693159   -1.762569    0.348417 H         1 UNL        0.0409 ****
 23 H           1.213477   -2.053955   -1.295410 H         1 UNL        0.0409 ****
 24 C          -1.818555    2.799736   -0.190303 C         1 UNL       -0.0982 ****
 25 H          -2.528661    2.903719    0.634867 H         1 UNL        0.0314 ****
 26 H          -2.020595    3.628785   -0.876703 H         1 UNL        0.0314 ****
 27 C           2.720733    2.083982    0.321376 C         1 UNL        0.1788 ****
 28 H           2.644209    2.639319   -0.624297 H         1 UNL        0.1129 ****
 29 C          -3.418127    0.847829   -1.053649 C         1 UNL        0.0812 ****
 30 H          -3.305323   -0.237434   -1.187279 H         1 UNL       -0.0137 ****
 31 C          -1.274018    0.043842    1.141589 C         1 UNL       -0.1676 ****
 32 H          -0.447428   -0.450768    1.658356 H         1 UNL        0.0332 ****
 33 H          -1.609388    0.862114    1.784660 H         1 UNL        0.0332 ****
 34 H          -2.091061   -0.681776    1.073012 H         1 UNL        0.0332 ****
 35 C           4.409632    0.196635    0.395562 C         1 UNL       -0.0653 ****
 36 C           3.937409   -1.863402   -0.950455 C         1 UNL       -0.0395 ****
 37 H           3.926689   -1.345556   -1.919514 H         1 UNL        0.0226 ****
 38 H           3.272868   -2.727679   -1.052969 H         1 UNL        0.0226 ****
 39 C           4.100688    1.500852    0.441676 C         1 UNL       -0.3319 ****
 40 H           4.890166    2.234967    0.602506 H         1 UNL        0.1745 ****
 41 C           3.107631   -1.672258    1.445457 C         1 UNL       -0.0509 ****
 42 H           2.508846   -2.570775    1.267410 H         1 UNL        0.0125 ****
 43 H           4.043042   -1.995917    1.909252 H         1 UNL        0.0125 ****
 44 H           2.582988   -1.051691    2.178317 H         1 UNL        0.0125 ****
 45 C           5.843236   -0.255580    0.600816 C         1 UNL       -0.2132 ****
 46 H           6.506414    0.611482    0.678787 H         1 UNL        0.0907 ****
 47 H           5.927698   -0.804939    1.552517 H         1 UNL        0.0907 ****
 48 C           5.367577   -2.358213   -0.684358 C         1 UNL       -0.1299 ****
 49 H           5.397217   -2.979733    0.222976 H         1 UNL        0.0478 ****
 50 H           5.702851   -2.994799   -1.511032 H         1 UNL        0.0478 ****
 51 C          -4.352882    1.085395    0.158001 C         1 UNL       -0.0053 ****
 52 H          -3.804719    0.943500    1.095343 H         1 UNL       -0.0058 ****
 53 H          -4.667001    2.137808    0.149886 H         1 UNL       -0.0058 ****
 54 C           6.334931   -1.186880   -0.517088 C         1 UNL        0.2995 ****
 55 H           6.381828   -0.621999   -1.456109 H         1 UNL        0.0872 ****
 56 C          -4.069196    1.394148   -2.341227 C         1 UNL       -0.1124 ****
 57 H          -4.147713    2.487938   -2.303691 H         1 UNL        0.0211 ****
 58 H          -5.077609    0.996406   -2.493294 H         1 UNL        0.0211 ****
 59 H          -3.476621    1.133055   -3.225067 H         1 UNL        0.0211 ****
 60 C          -5.619079    0.203994    0.208845 C         1 UNL        0.0035 ****
 61 H          -6.280839    0.617861    0.979968 H         1 UNL        0.0025 ****
 62 H          -6.170162    0.288776   -0.735389 H         1 UNL        0.0025 ****
 63 C          -5.344462   -1.276184    0.524932 C         1 UNL       -0.0683 ****
 64 H          -4.781710   -1.332621    1.468232 H         1 UNL        0.0052 ****
 65 H          -4.687582   -1.700076   -0.246311 H         1 UNL        0.0052 ****
 66 C          -6.584942   -2.193370    0.646901 C         1 UNL        0.2615 ****
 67 H          -6.195388   -3.196502    0.875817 H         1 UNL       -0.0409 ****
 68 C          -7.370944   -2.305489   -0.670106 C         1 UNL       -0.2053 ****
 69 H          -7.847983   -1.355952   -0.938637 H         1 UNL        0.0398 ****
 70 H          -8.164287   -3.057148   -0.587483 H         1 UNL        0.0398 ****
 71 H          -6.718293   -2.598969   -1.500792 H         1 UNL        0.0398 ****
 72 C          -7.509140   -1.794210    1.809377 C         1 UNL       -0.2124 ****
 73 H          -7.996270   -0.829383    1.627608 H         1 UNL        0.0417 ****
 74 H          -8.301760   -2.538198    1.948894 H         1 UNL        0.0417 ****
 75 H          -6.954251   -1.716788    2.751840 H         1 UNL        0.0417 ****
@<TRIPOS>BOND
    1     1     2 1
    2     1    27 1
    3     3     4 1
    4     3    54 1
    5     5     6 1
    6     5    12 1
    7     5    14 1
    8     5    31 1
    9     6     7 1
   10     6     8 1
   11     6    18 1
   12     8     9 1
   13     8    10 1
   14     8    27 1
   15    10    11 1
   16    10    17 1
   17    10    21 1
   18    12    13 1
   19    12    24 1
   20    12    29 1
   21    14    15 1
   22    14    16 1
   23    14    21 1
   24    17    35 1
   25    17    36 1
   26    17    41 1
   27    18    19 1
   28    18    20 1
   29    18    24 1
   30    21    22 1
   31    21    23 1
   32    24    25 1
   33    24    26 1
   34    27    28 1
   35    27    39 1
   36    29    30 1
   37    29    51 1
   38    29    56 1
   39    31    32 1
   40    31    33 1
   41    31    34 1
   42    35    39 1
   43    35    45 1
   44    36    37 1
   45    36    38 1
   46    36    48 1
   47    39    40 1
   48    41    42 1
   49    41    43 1
   50    41    44 1
   51    45    46 1
   52    45    47 1
   53    45    54 1
   54    48    49 1
   55    48    50 1
   56    48    54 1
   57    51    52 1
   58    51    53 1
   59    51    60 1
   60    54    55 1
   61    56    57 1
   62    56    58 1
   63    56    59 1
   64    60    61 1
   65    60    62 1
   66    60    63 1
   67    63    64 1
   68    63    65 1
   69    63    66 1
   70    66    67 1
   71    66    68 1
   72    66    72 1
   73    68    69 1
   74    68    70 1
   75    68    71 1
   76    72    73 1
   77    72    74 1
   78    72    75 1
@<TRIPOS>SUBSTRUCTURE
      1  UNL              1 ****               0 ****  ****  


