@<TRIPOS>MOLECULE
UNL
   75    78     1     0     1
SMALL
USER_CHARGES
@<TRIPOS>ATOM
  1 O          -2.279126   -3.322324    0.247781 O         1 UNL       -0.6631 ****
  2 H          -2.694464   -3.322863    1.121734 H         1 UNL        0.4139 ****
  3 O          -8.167512    0.639707   -0.729904 O         1 UNL       -0.6979 ****
  4 H          -8.425009    0.811530    0.186790 H         1 UNL        0.4112 ****
  5 C           0.600984    0.218605    0.297974 C         1 UNL        0.1021 ****
  6 C          -0.295768   -0.938088   -0.232342 C         1 UNL        0.0167 ****
  7 H          -0.332100   -0.790656   -1.325907 H         1 UNL       -0.0002 ****
  8 C          -1.763062   -0.899873    0.231500 C         1 UNL       -0.0185 ****
  9 H          -1.807634   -1.019567    1.324054 H         1 UNL        0.0964 ****
 10 C          -2.399332    0.461522   -0.164924 C         1 UNL        0.0133 ****
 11 H          -2.430873    0.464787   -1.266991 H         1 UNL        0.0165 ****
 12 C           1.969628   -0.167560   -0.365114 C         1 UNL        0.0393 ****
 13 H           1.874694    0.096485   -1.430598 H         1 UNL        0.0083 ****
 14 C          -0.041001    1.533633   -0.187486 C         1 UNL       -0.0952 ****
 15 H           0.012358    1.566282   -1.285373 H         1 UNL        0.0192 ****
 16 H           0.503259    2.410919    0.175583 H         1 UNL        0.0192 ****
 17 C          -3.890933    0.607247    0.298204 C         1 UNL        0.0610 ****
 18 C           0.543096   -2.203053    0.005719 C         1 UNL       -0.0909 ****
 19 H           0.244074   -3.030735   -0.641459 H         1 UNL        0.0355 ****
 20 H           0.418470   -2.561301    1.033107 H         1 UNL        0.0355 ****
 21 C          -1.510961    1.653811    0.257396 C         1 UNL       -0.0821 ****
 22 H          -1.538892    1.768877    1.346377 H         1 UNL        0.0409 ****
 23 H          -1.922204    2.582184   -0.154315 H         1 UNL        0.0409 ****
 24 C           1.998152   -1.730212   -0.255062 C         1 UNL       -0.0982 ****
 25 H           2.662378   -2.043677    0.559490 H         1 UNL        0.0314 ****
 26 H           2.400676   -2.177892   -1.168813 H         1 UNL        0.0314 ****
 27 C          -2.573042   -2.059006   -0.381418 C         1 UNL        0.1788 ****
 28 H          -2.245478   -2.211851   -1.419598 H         1 UNL        0.1129 ****
 29 C           3.280890    0.489748    0.140122 C         1 UNL        0.0812 ****
 30 H           3.429338    0.180014    1.186014 H         1 UNL       -0.0137 ****
 31 C           0.727007    0.204808    1.838879 C         1 UNL       -0.1676 ****
 32 H          -0.244812    0.259426    2.336505 H         1 UNL        0.0332 ****
 33 H           1.223240   -0.700928    2.199672 H         1 UNL        0.0332 ****
 34 H           1.315971    1.059564    2.187270 H         1 UNL        0.0332 ****
 35 C          -4.666075   -0.673026   -0.031670 C         1 UNL       -0.0653 ****
 36 C          -4.543870    1.787675   -0.487066 C         1 UNL       -0.0395 ****
 37 H          -4.288044    1.676122   -1.549806 H         1 UNL        0.0226 ****
 38 H          -4.100256    2.733527   -0.158755 H         1 UNL        0.0226 ****
 39 C          -4.057136   -1.821523   -0.361301 C         1 UNL       -0.3319 ****
 40 H          -4.657991   -2.693654   -0.619071 H         1 UNL        0.1745 ****
 41 C          -3.996444    0.877468    1.823141 C         1 UNL       -0.0509 ****
 42 H          -3.611151    1.868997    2.080084 H         1 UNL        0.0125 ****
 43 H          -5.032802    0.835512    2.168294 H         1 UNL        0.0125 ****
 44 H          -3.435428    0.133677    2.397237 H         1 UNL        0.0125 ****
 45 C          -6.180601   -0.598050    0.016131 C         1 UNL       -0.2132 ****
 46 H          -6.617859   -1.536947   -0.337419 H         1 UNL        0.0907 ****
 47 H          -6.513741   -0.466940    1.058477 H         1 UNL        0.0907 ****
 48 C          -6.072832    1.880441   -0.366751 C         1 UNL       -0.1299 ****
 49 H          -6.364448    2.104584    0.670121 H         1 UNL        0.0478 ****
 50 H          -6.447193    2.705906   -0.982788 H         1 UNL        0.0478 ****
 51 C           4.490640   -0.041719   -0.668840 C         1 UNL       -0.0053 ****
 52 H           4.423635   -1.132655   -0.747019 H         1 UNL       -0.0058 ****
 53 H           4.421174    0.340883   -1.698931 H         1 UNL       -0.0058 ****
 54 C          -6.740610    0.575907   -0.800690 C         1 UNL        0.2995 ****
 55 H          -6.532464    0.401412   -1.863354 H         1 UNL        0.0872 ****
 56 C           3.247798    2.027979    0.099880 C         1 UNL       -0.1124 ****
 57 H           3.012293    2.388277   -0.909554 H         1 UNL        0.0211 ****
 58 H           4.214996    2.452475    0.384931 H         1 UNL        0.0211 ****
 59 H           2.504983    2.444250    0.783933 H         1 UNL        0.0211 ****
 60 C           5.874432    0.300509   -0.091831 C         1 UNL        0.0035 ****
 61 H           6.016902    1.386825   -0.069203 H         1 UNL        0.0025 ****
 62 H           5.914839   -0.039595    0.951988 H         1 UNL        0.0025 ****
 63 C           7.013566   -0.347062   -0.896280 C         1 UNL       -0.0683 ****
 64 H           6.932177   -0.021506   -1.943558 H         1 UNL        0.0052 ****
 65 H           6.862141   -1.436150   -0.906068 H         1 UNL        0.0052 ****
 66 C           8.454125   -0.062002   -0.410990 C         1 UNL        0.2615 ****
 67 H           9.116704   -0.609425   -1.097737 H         1 UNL       -0.0409 ****
 68 C           8.721599   -0.605189    1.002490 C         1 UNL       -0.2053 ****
 69 H           8.142436   -0.064384    1.759843 H         1 UNL        0.0398 ****
 70 H           9.780438   -0.501830    1.266051 H         1 UNL        0.0398 ****
 71 H           8.460938   -1.667502    1.077707 H         1 UNL        0.0398 ****
 72 C           8.831300    1.425413   -0.511724 C         1 UNL       -0.2124 ****
 73 H           8.256316    2.037526    0.192694 H         1 UNL        0.0417 ****
 74 H           9.892594    1.574697   -0.282294 H         1 UNL        0.0417 ****
 75 H           8.649617    1.815836   -1.520024 H         1 UNL        0.0417 ****
@<TRIPOS>BOND
    1     1     2 1
    2     1    27 1
    3     3     4 1
    4     3    54 1
    5     5     6 1
    6     5    12 1
    7     5    14 1
    8     5    31 1
    9     6     7 1
   10     6     8 1
   11     6    18 1
   12     8     9 1
   13     8    10 1
   14     8    27 1
   15    10    11 1
   16    10    17 1
   17    10    21 1
   18    12    13 1
   19    12    24 1
   20    12    29 1
   21    14    15 1
   22    14    16 1
   23    14    21 1
   24    17    35 1
   25    17    36 1
   26    17    41 1
   27    18    19 1
   28    18    20 1
   29    18    24 1
   30    21    22 1
   31    21    23 1
   32    24    25 1
   33    24    26 1
   34    27    28 1
   35    27    39 1
   36    29    30 1
   37    29    51 1
   38    29    56 1
   39    31    32 1
   40    31    33 1
   41    31    34 1
   42    35    39 1
   43    35    45 1
   44    36    37 1
   45    36    38 1
   46    36    48 1
   47    39    40 1
   48    41    42 1
   49    41    43 1
   50    41    44 1
   51    45    46 1
   52    45    47 1
   53    45    54 1
   54    48    49 1
   55    48    50 1
   56    48    54 1
   57    51    52 1
   58    51    53 1
   59    51    60 1
   60    54    55 1
   61    56    57 1
   62    56    58 1
   63    56    59 1
   64    60    61 1
   65    60    62 1
   66    60    63 1
   67    63    64 1
   68    63    65 1
   69    63    66 1
   70    66    67 1
   71    66    68 1
   72    66    72 1
   73    68    69 1
   74    68    70 1
   75    68    71 1
   76    72    73 1
   77    72    74 1
   78    72    75 1
@<TRIPOS>SUBSTRUCTURE
      1  UNL              1 ****               0 ****  ****  


