@<TRIPOS>MOLECULE
UNL
   75    78     1     0     1
SMALL
USER_CHARGES
@<TRIPOS>ATOM
  1 O           1.760569    3.280278   -0.053540 O         1 UNL       -0.6631 ****
  2 H           2.094699    3.373834    0.849737 H         1 UNL        0.4139 ****
  3 O           8.030931   -0.180527   -0.243275 O         1 UNL       -0.6979 ****
  4 H           8.217858   -0.268730    0.701943 H         1 UNL        0.4112 ****
  5 C          -0.798926   -0.499069   -0.006915 C         1 UNL        0.1021 ****
  6 C           0.042152    0.698339   -0.538388 C         1 UNL        0.0167 ****
  7 H           0.194154    0.484328   -1.610758 H         1 UNL       -0.0002 ****
  8 C           1.457062    0.824615    0.054533 C         1 UNL       -0.0185 ****
  9 H           1.388266    1.016382    1.135499 H         1 UNL        0.0964 ****
 10 C           2.241708   -0.494930   -0.186753 C         1 UNL        0.0133 ****
 11 H           2.374819   -0.565697   -1.278903 H         1 UNL        0.0165 ****
 12 C          -2.126188   -0.282567   -0.815350 C         1 UNL        0.0393 ****
 13 H          -1.907025   -0.601980   -1.846867 H         1 UNL        0.0083 ****
 14 C          -0.003797   -1.778199   -0.337097 C         1 UNL       -0.0952 ****
 15 H           0.048592   -1.887153   -1.430096 H         1 UNL        0.0192 ****
 16 H          -0.502083   -2.676525    0.040293 H         1 UNL        0.0192 ****
 17 C           3.691087   -0.473751    0.412298 C         1 UNL        0.0610 ****
 18 C          -0.919718    1.894295   -0.468472 C         1 UNL       -0.0909 ****
 19 H          -0.633397    2.701054   -1.147092 H         1 UNL        0.0355 ****
 20 H          -0.921933    2.329918    0.536307 H         1 UNL        0.0355 ****
 21 C           1.423034   -1.733888    0.242077 C         1 UNL       -0.0821 ****
 22 H           1.358927   -1.775061    1.334850 H         1 UNL        0.0409 ****
 23 H           1.948607   -2.645402   -0.063460 H         1 UNL        0.0409 ****
 24 C          -2.298831    1.274406   -0.818516 C         1 UNL       -0.0982 ****
 25 H          -3.057663    1.575612   -0.086242 H         1 UNL        0.0314 ****
 26 H          -2.655247    1.625113   -1.791849 H         1 UNL        0.0314 ****
 27 C           2.218099    2.012697   -0.565700 C         1 UNL        0.1788 ****
 28 H           1.975436    2.070580   -1.636320 H         1 UNL        0.1129 ****
 29 C          -3.420199   -1.024310   -0.387047 C         1 UNL        0.0812 ****
 30 H          -3.686873   -0.668815    0.618628 H         1 UNL       -0.0137 ****
 31 C          -1.071482   -0.398863    1.511527 C         1 UNL       -0.1676 ****
 32 H          -0.150245   -0.335221    2.096642 H         1 UNL        0.0332 ****
 33 H          -1.673043    0.480109    1.761235 H         1 UNL        0.0332 ****
 34 H          -1.617983   -1.279205    1.865619 H         1 UNL        0.0332 ****
 35 C           4.381055    0.848341    0.058813 C         1 UNL       -0.0653 ****
 36 C           4.511884   -1.637672   -0.226524 C         1 UNL       -0.0395 ****
 37 H           4.345695   -1.619129   -1.312489 H         1 UNL        0.0226 ****
 38 H           4.122841   -2.597017    0.130603 H         1 UNL        0.0226 ****
 39 C           3.708912    1.913464   -0.401962 C         1 UNL       -0.3319 ****
 40 H           4.254202    2.818718   -0.668879 H         1 UNL        0.1745 ****
 41 C           3.678613   -0.634358    1.956195 C         1 UNL       -0.0509 ****
 42 H           3.357872   -1.638473    2.250270 H         1 UNL        0.0125 ****
 43 H           4.671418   -0.475089    2.385095 H         1 UNL        0.0125 ****
 44 H           3.005515    0.090226    2.424653 H         1 UNL        0.0125 ****
 45 C           5.885839    0.915286    0.240338 C         1 UNL       -0.2132 ****
 46 H           6.271619    1.865659   -0.141352 H         1 UNL        0.0907 ****
 47 H           6.132798    0.882135    1.313923 H         1 UNL        0.0907 ****
 48 C           6.025789   -1.581796    0.030092 C         1 UNL       -0.1299 ****
 49 H           6.239619   -1.710437    1.101610 H         1 UNL        0.0478 ****
 50 H           6.524082   -2.407736   -0.490068 H         1 UNL        0.0478 ****
 51 C          -4.578470   -0.646622   -1.346124 C         1 UNL       -0.0053 ****
 52 H          -4.649943    0.444169   -1.409637 H         1 UNL       -0.0058 ****
 53 H          -4.309271   -0.986914   -2.357311 H         1 UNL       -0.0058 ****
 54 C           6.616180   -0.252487   -0.439188 C         1 UNL        0.2995 ****
 55 H           6.491297   -0.166911   -1.525527 H         1 UNL        0.0872 ****
 56 C          -3.255764   -2.552416   -0.320593 C         1 UNL       -0.1124 ****
 57 H          -2.917621   -2.954117   -1.284285 H         1 UNL        0.0211 ****
 58 H          -4.201642   -3.043158   -0.072475 H         1 UNL        0.0211 ****
 59 H          -2.532820   -2.856442    0.439388 H         1 UNL        0.0211 ****
 60 C          -5.974691   -1.207487   -1.008733 C         1 UNL        0.0035 ****
 61 H          -6.667473   -0.873657   -1.791764 H         1 UNL        0.0025 ****
 62 H          -5.965235   -2.301827   -1.082599 H         1 UNL        0.0025 ****
 63 C          -6.542457   -0.825130    0.371422 C         1 UNL       -0.0683 ****
 64 H          -5.901027   -1.248195    1.156519 H         1 UNL        0.0052 ****
 65 H          -7.519852   -1.316174    0.489648 H         1 UNL        0.0052 ****
 66 C          -6.724386    0.681751    0.651687 C         1 UNL        0.2615 ****
 67 H          -5.746531    1.172991    0.544599 H         1 UNL       -0.0409 ****
 68 C          -7.192310    0.899551    2.099674 C         1 UNL       -0.2053 ****
 69 H          -8.171790    0.433660    2.268193 H         1 UNL        0.0398 ****
 70 H          -7.288059    1.966493    2.331400 H         1 UNL        0.0398 ****
 71 H          -6.488637    0.462179    2.817416 H         1 UNL        0.0398 ****
 72 C          -7.695883    1.349925   -0.334353 C         1 UNL       -0.2124 ****
 73 H          -8.685980    0.878121   -0.284959 H         1 UNL        0.0417 ****
 74 H          -7.822800    2.412689   -0.098789 H         1 UNL        0.0417 ****
 75 H          -7.346019    1.282353   -1.369480 H         1 UNL        0.0417 ****
@<TRIPOS>BOND
    1     1     2 1
    2     1    27 1
    3     3     4 1
    4     3    54 1
    5     5     6 1
    6     5    12 1
    7     5    14 1
    8     5    31 1
    9     6     7 1
   10     6     8 1
   11     6    18 1
   12     8     9 1
   13     8    10 1
   14     8    27 1
   15    10    11 1
   16    10    17 1
   17    10    21 1
   18    12    13 1
   19    12    24 1
   20    12    29 1
   21    14    15 1
   22    14    16 1
   23    14    21 1
   24    17    35 1
   25    17    36 1
   26    17    41 1
   27    18    19 1
   28    18    20 1
   29    18    24 1
   30    21    22 1
   31    21    23 1
   32    24    25 1
   33    24    26 1
   34    27    28 1
   35    27    39 1
   36    29    30 1
   37    29    51 1
   38    29    56 1
   39    31    32 1
   40    31    33 1
   41    31    34 1
   42    35    39 1
   43    35    45 1
   44    36    37 1
   45    36    38 1
   46    36    48 1
   47    39    40 1
   48    41    42 1
   49    41    43 1
   50    41    44 1
   51    45    46 1
   52    45    47 1
   53    45    54 1
   54    48    49 1
   55    48    50 1
   56    48    54 1
   57    51    52 1
   58    51    53 1
   59    51    60 1
   60    54    55 1
   61    56    57 1
   62    56    58 1
   63    56    59 1
   64    60    61 1
   65    60    62 1
   66    60    63 1
   67    63    64 1
   68    63    65 1
   69    63    66 1
   70    66    67 1
   71    66    68 1
   72    66    72 1
   73    68    69 1
   74    68    70 1
   75    68    71 1
   76    72    73 1
   77    72    74 1
   78    72    75 1
@<TRIPOS>SUBSTRUCTURE
      1  UNL              1 ****               0 ****  ****  


