@<TRIPOS>MOLECULE
UNL
   75    78     1     0     1
SMALL
USER_CHARGES
@<TRIPOS>ATOM
  1 O           2.178382    3.324229    0.325068 O         1 UNL       -0.6631 ****
  2 H           2.687019    3.325569    1.148233 H         1 UNL        0.4139 ****
  3 O           7.979024   -0.545668   -1.321021 O         1 UNL       -0.6979 ****
  4 H           8.338020   -0.717429   -0.439101 H         1 UNL        0.4112 ****
  5 C          -0.629896   -0.258388    0.661768 C         1 UNL        0.1021 ****
  6 C           0.188084    0.913688    0.044811 C         1 UNL        0.0167 ****
  7 H           0.107968    0.771609   -1.047121 H         1 UNL       -0.0002 ****
  8 C           1.697345    0.894771    0.346731 C         1 UNL       -0.0185 ****
  9 H           1.858505    1.009087    1.428831 H         1 UNL        0.0964 ****
 10 C           2.305723   -0.455050   -0.125800 C         1 UNL        0.0133 ****
 11 H           2.216149   -0.452445   -1.224664 H         1 UNL        0.0165 ****
 12 C          -2.067286    0.111041    0.152205 C         1 UNL        0.0393 ****
 13 H          -2.083777   -0.146785   -0.918908 H         1 UNL        0.0083 ****
 14 C          -0.025710   -1.561622    0.101748 C         1 UNL       -0.0952 ****
 15 H          -0.197665   -1.590406   -0.984002 H         1 UNL        0.0192 ****
 16 H          -0.514627   -2.448530    0.516570 H         1 UNL        0.0192 ****
 17 C           3.840948   -0.581153    0.169964 C         1 UNL        0.0610 ****
 18 C          -0.637711    2.165295    0.379435 C         1 UNL       -0.0909 ****
 19 H          -0.421761    3.000157   -0.291156 H         1 UNL        0.0355 ****
 20 H          -0.408238    2.520628    1.389624 H         1 UNL        0.0355 ****
 21 C           1.485544   -1.662104    0.383569 C         1 UNL       -0.0821 ****
 22 H           1.633472   -1.781611    1.462361 H         1 UNL        0.0409 ****
 23 H           1.862661   -2.582467   -0.075961 H         1 UNL        0.0409 ****
 24 C          -2.105622    1.672569    0.274000 C         1 UNL       -0.0982 ****
 25 H          -2.682295    1.972817    1.157301 H         1 UNL        0.0314 ****
 26 H          -2.610940    2.118281   -0.588247 H         1 UNL        0.0314 ****
 27 C           2.419338    2.069254   -0.342210 C         1 UNL        0.1788 ****
 28 H           1.978128    2.223611   -1.337185 H         1 UNL        0.1129 ****
 29 C          -3.307868   -0.566573    0.790981 C         1 UNL        0.0812 ****
 30 H          -3.347120   -0.265640    1.849252 H         1 UNL       -0.0137 ****
 31 C          -0.589664   -0.253778    2.207248 C         1 UNL       -0.1676 ****
 32 H           0.430519   -0.299542    2.597292 H         1 UNL        0.0332 ****
 33 H          -1.054360    0.644288    2.624729 H         1 UNL        0.0332 ****
 34 H          -1.128179   -1.117203    2.611568 H         1 UNL        0.0332 ****
 35 C           4.557143    0.712019   -0.234396 C         1 UNL       -0.0653 ****
 36 C           4.420485   -1.748047   -0.689672 C         1 UNL       -0.0395 ****
 37 H           4.048203   -1.635079   -1.717241 H         1 UNL        0.0226 ****
 38 H           4.028913   -2.701961   -0.320878 H         1 UNL        0.0226 ****
 39 C           3.899841    1.853469   -0.486499 C         1 UNL       -0.3319 ****
 40 H           4.456573    2.735769   -0.802209 H         1 UNL        0.1745 ****
 41 C           4.117263   -0.857291    1.672236 C         1 UNL       -0.0509 ****
 42 H           3.775360   -1.855147    1.963700 H         1 UNL        0.0125 ****
 43 H           5.184781   -0.803054    1.901010 H         1 UNL        0.0125 ****
 44 H           3.613696   -0.123821    2.309390 H         1 UNL        0.0125 ****
 45 C           6.068727    0.658845   -0.353467 C         1 UNL       -0.2132 ****
 46 H           6.451441    1.605840   -0.746474 H         1 UNL        0.0907 ****
 47 H           6.515890    0.527161    0.645217 H         1 UNL        0.0907 ****
 48 C           5.954623   -1.818945   -0.738299 C         1 UNL       -0.1299 ****
 49 H           6.361441   -2.043924    0.258827 H         1 UNL        0.0478 ****
 50 H           6.270625   -2.635807   -1.397020 H         1 UNL        0.0478 ****
 51 C          -4.604077   -0.044755    0.121411 C         1 UNL       -0.0053 ****
 52 H          -4.573408    1.050241    0.079217 H         1 UNL       -0.0058 ****
 53 H          -4.616963   -0.388924   -0.923005 H         1 UNL       -0.0058 ****
 54 C           6.552227   -0.502625   -1.234488 C         1 UNL        0.2995 ****
 55 H           6.226277   -0.326155   -2.266805 H         1 UNL        0.0872 ****
 56 C          -3.261441   -2.103845    0.736572 C         1 UNL       -0.1124 ****
 57 H          -3.144324   -2.456306   -0.296126 H         1 UNL        0.0211 ****
 58 H          -4.182061   -2.541660    1.133635 H         1 UNL        0.0211 ****
 59 H          -2.436646   -2.513609    1.323591 H         1 UNL        0.0211 ****
 60 C          -5.911438   -0.447792    0.824791 C         1 UNL        0.0035 ****
 61 H          -6.066835   -1.530837    0.760063 H         1 UNL        0.0025 ****
 62 H          -5.815938   -0.222301    1.896530 H         1 UNL        0.0025 ****
 63 C          -7.160668    0.281564    0.296500 C         1 UNL       -0.0683 ****
 64 H          -7.021056    1.362765    0.440466 H         1 UNL        0.0052 ****
 65 H          -8.021791    0.001313    0.921310 H         1 UNL        0.0052 ****
 66 C          -7.536330    0.032274   -1.179870 C         1 UNL        0.2615 ****
 67 H          -6.683456    0.329666   -1.806741 H         1 UNL       -0.0409 ****
 68 C          -8.730345    0.914094   -1.579169 C         1 UNL       -0.2053 ****
 69 H          -9.619316    0.660015   -0.987473 H         1 UNL        0.0398 ****
 70 H          -8.986815    0.782516   -2.636605 H         1 UNL        0.0398 ****
 71 H          -8.514875    1.976317   -1.415896 H         1 UNL        0.0398 ****
 72 C          -7.839271   -1.446975   -1.466763 C         1 UNL       -0.2124 ****
 73 H          -8.671491   -1.801783   -0.844765 H         1 UNL        0.0417 ****
 74 H          -8.123878   -1.591731   -2.515196 H         1 UNL        0.0417 ****
 75 H          -6.976852   -2.091606   -1.268330 H         1 UNL        0.0417 ****
@<TRIPOS>BOND
    1     1     2 1
    2     1    27 1
    3     3     4 1
    4     3    54 1
    5     5     6 1
    6     5    12 1
    7     5    14 1
    8     5    31 1
    9     6     7 1
   10     6     8 1
   11     6    18 1
   12     8     9 1
   13     8    10 1
   14     8    27 1
   15    10    11 1
   16    10    17 1
   17    10    21 1
   18    12    13 1
   19    12    24 1
   20    12    29 1
   21    14    15 1
   22    14    16 1
   23    14    21 1
   24    17    35 1
   25    17    36 1
   26    17    41 1
   27    18    19 1
   28    18    20 1
   29    18    24 1
   30    21    22 1
   31    21    23 1
   32    24    25 1
   33    24    26 1
   34    27    28 1
   35    27    39 1
   36    29    30 1
   37    29    51 1
   38    29    56 1
   39    31    32 1
   40    31    33 1
   41    31    34 1
   42    35    39 1
   43    35    45 1
   44    36    37 1
   45    36    38 1
   46    36    48 1
   47    39    40 1
   48    41    42 1
   49    41    43 1
   50    41    44 1
   51    45    46 1
   52    45    47 1
   53    45    54 1
   54    48    49 1
   55    48    50 1
   56    48    54 1
   57    51    52 1
   58    51    53 1
   59    51    60 1
   60    54    55 1
   61    56    57 1
   62    56    58 1
   63    56    59 1
   64    60    61 1
   65    60    62 1
   66    60    63 1
   67    63    64 1
   68    63    65 1
   69    63    66 1
   70    66    67 1
   71    66    68 1
   72    66    72 1
   73    68    69 1
   74    68    70 1
   75    68    71 1
   76    72    73 1
   77    72    74 1
   78    72    75 1
@<TRIPOS>SUBSTRUCTURE
      1  UNL              1 ****               0 ****  ****  


