@<TRIPOS>MOLECULE
UNL
   75    78     1     0     1
SMALL
USER_CHARGES
@<TRIPOS>ATOM
  1 O           2.361164    3.318473   -0.636612 O         1 UNL       -0.6631 ****
  2 H           2.914011    3.506877    0.134852 H         1 UNL        0.4139 ****
  3 O           7.611914   -1.529163   -1.146699 O         1 UNL       -0.6979 ****
  4 H           7.997561   -1.474473   -0.261009 H         1 UNL        0.4112 ****
  5 C          -0.790250    0.361341    0.832008 C         1 UNL        0.1021 ****
  6 C           0.111298    1.192264   -0.126900 C         1 UNL        0.0167 ****
  7 H          -0.045455    0.742934   -1.122973 H         1 UNL       -0.0002 ****
  8 C           1.624337    1.082489    0.133198 C         1 UNL       -0.0185 ****
  9 H           1.858871    1.493609    1.126144 H         1 UNL        0.0964 ****
 10 C           2.055493   -0.409917    0.077076 C         1 UNL        0.0133 ****
 11 H           1.906634   -0.722261   -0.969758 H         1 UNL        0.0165 ****
 12 C          -2.203664    0.736895    0.265276 C         1 UNL        0.0393 ****
 13 H          -2.289123    0.198962   -0.690882 H         1 UNL        0.0083 ****
 14 C          -0.365712   -1.112044    0.676419 C         1 UNL       -0.0952 ****
 15 H          -0.601581   -1.440599   -0.346194 H         1 UNL        0.0192 ****
 16 H          -0.924540   -1.768625    1.350812 H         1 UNL        0.0192 ****
 17 C           3.582039   -0.625371    0.366527 C         1 UNL        0.0610 ****
 18 C          -0.554512    2.577796   -0.167042 C         1 UNL       -0.0909 ****
 19 H          -0.305870    3.132216   -1.074951 H         1 UNL        0.0355 ****
 20 H          -0.210872    3.196248    0.668774 H         1 UNL        0.0355 ****
 21 C           1.139391   -1.305745    0.942010 C         1 UNL       -0.0821 ****
 22 H           1.334090   -1.119072    2.003587 H         1 UNL        0.0409 ****
 23 H           1.388359   -2.358920    0.770793 H         1 UNL        0.0409 ****
 24 C          -2.070706    2.262769   -0.048374 C         1 UNL       -0.0982 ****
 25 H          -2.526315    2.856286    0.753199 H         1 UNL        0.0314 ****
 26 H          -2.610185    2.522680   -0.964709 H         1 UNL        0.0314 ****
 27 C           2.428947    1.901858   -0.894730 C         1 UNL        0.1788 ****
 28 H           1.952568    1.801711   -1.880392 H         1 UNL        0.1129 ****
 29 C          -3.470662    0.407248    1.093014 C         1 UNL        0.0812 ****
 30 H          -3.387627    0.957580    2.042134 H         1 UNL       -0.0137 ****
 31 C          -0.660725    0.814652    2.304295 C         1 UNL       -0.1676 ****
 32 H           0.368849    0.760495    2.667769 H         1 UNL        0.0332 ****
 33 H          -0.998034    1.845591    2.446173 H         1 UNL        0.0332 ****
 34 H          -1.266832    0.179545    2.959120 H         1 UNL        0.0332 ****
 35 C           4.410655    0.393946   -0.422975 C         1 UNL       -0.0653 ****
 36 C           3.983878   -2.055401   -0.113112 C         1 UNL       -0.0395 ****
 37 H           3.570168   -2.208931   -1.119375 H         1 UNL        0.0226 ****
 38 H           3.512320   -2.802835    0.533557 H         1 UNL        0.0226 ****
 39 C           3.867503    1.478085   -0.995804 C         1 UNL       -0.3319 ****
 40 H           4.498115    2.153068   -1.574430 H         1 UNL        0.1745 ****
 41 C           3.908669   -0.474218    1.876503 C         1 UNL       -0.0509 ****
 42 H           3.478172   -1.292739    2.461543 H         1 UNL        0.0125 ****
 43 H           4.986709   -0.481742    2.057333 H         1 UNL        0.0125 ****
 44 H           3.522179    0.469514    2.273493 H         1 UNL        0.0125 ****
 45 C           5.898825    0.127829   -0.549898 C         1 UNL       -0.2132 ****
 46 H           6.359629    0.862463   -1.217498 H         1 UNL        0.0907 ****
 47 H           6.382999    0.246387    0.433037 H         1 UNL        0.0907 ****
 48 C           5.496374   -2.320349   -0.168216 C         1 UNL       -0.1299 ****
 49 H           5.930083   -2.285922    0.842301 H         1 UNL        0.0478 ****
 50 H           5.685877   -3.327589   -0.556273 H         1 UNL        0.0478 ****
 51 C          -4.764621    0.966907    0.432587 C         1 UNL       -0.0053 ****
 52 H          -5.607808    0.720307    1.091401 H         1 UNL       -0.0058 ****
 53 H          -4.697562    2.061113    0.450367 H         1 UNL       -0.0058 ****
 54 C           6.205015   -1.291987   -1.049322 C         1 UNL        0.2995 ****
 55 H           5.844289   -1.392128   -2.080286 H         1 UNL        0.0872 ****
 56 C          -3.603318   -1.083553    1.460363 C         1 UNL       -0.1124 ****
 57 H          -3.473747   -1.737794    0.592492 H         1 UNL        0.0211 ****
 58 H          -4.591155   -1.289168    1.887653 H         1 UNL        0.0211 ****
 59 H          -2.861907   -1.381683    2.206714 H         1 UNL        0.0211 ****
 60 C          -5.112092    0.563088   -1.018387 C         1 UNL        0.0035 ****
 61 H          -5.851823    1.285362   -1.387103 H         1 UNL        0.0025 ****
 62 H          -4.232105    0.708044   -1.657519 H         1 UNL        0.0025 ****
 63 C          -5.656568   -0.857445   -1.272483 C         1 UNL       -0.0683 ****
 64 H          -4.888927   -1.600238   -1.026335 H         1 UNL        0.0052 ****
 65 H          -5.831657   -0.959020   -2.354315 H         1 UNL        0.0052 ****
 66 C          -6.961430   -1.244438   -0.544324 C         1 UNL        0.2615 ****
 67 H          -6.792287   -1.159334    0.538450 H         1 UNL       -0.0409 ****
 68 C          -7.316393   -2.710883   -0.839041 C         1 UNL       -0.2053 ****
 69 H          -7.504236   -2.860045   -1.910183 H         1 UNL        0.0398 ****
 70 H          -8.218427   -3.018953   -0.298001 H         1 UNL        0.0398 ****
 71 H          -6.503218   -3.385439   -0.547255 H         1 UNL        0.0398 ****
 72 C          -8.135864   -0.322493   -0.909560 C         1 UNL       -0.2124 ****
 73 H          -8.329435   -0.347937   -1.989976 H         1 UNL        0.0417 ****
 74 H          -9.053746   -0.638753   -0.400984 H         1 UNL        0.0417 ****
 75 H          -7.947061    0.718791   -0.629465 H         1 UNL        0.0417 ****
@<TRIPOS>BOND
    1     1     2 1
    2     1    27 1
    3     3     4 1
    4     3    54 1
    5     5     6 1
    6     5    12 1
    7     5    14 1
    8     5    31 1
    9     6     7 1
   10     6     8 1
   11     6    18 1
   12     8     9 1
   13     8    10 1
   14     8    27 1
   15    10    11 1
   16    10    17 1
   17    10    21 1
   18    12    13 1
   19    12    24 1
   20    12    29 1
   21    14    15 1
   22    14    16 1
   23    14    21 1
   24    17    35 1
   25    17    36 1
   26    17    41 1
   27    18    19 1
   28    18    20 1
   29    18    24 1
   30    21    22 1
   31    21    23 1
   32    24    25 1
   33    24    26 1
   34    27    28 1
   35    27    39 1
   36    29    30 1
   37    29    51 1
   38    29    56 1
   39    31    32 1
   40    31    33 1
   41    31    34 1
   42    35    39 1
   43    35    45 1
   44    36    37 1
   45    36    38 1
   46    36    48 1
   47    39    40 1
   48    41    42 1
   49    41    43 1
   50    41    44 1
   51    45    46 1
   52    45    47 1
   53    45    54 1
   54    48    49 1
   55    48    50 1
   56    48    54 1
   57    51    52 1
   58    51    53 1
   59    51    60 1
   60    54    55 1
   61    56    57 1
   62    56    58 1
   63    56    59 1
   64    60    61 1
   65    60    62 1
   66    60    63 1
   67    63    64 1
   68    63    65 1
   69    63    66 1
   70    66    67 1
   71    66    68 1
   72    66    72 1
   73    68    69 1
   74    68    70 1
   75    68    71 1
   76    72    73 1
   77    72    74 1
   78    72    75 1
@<TRIPOS>SUBSTRUCTURE
      1  UNL              1 ****               0 ****  ****  


