@<TRIPOS>MOLECULE
UNL
   75    78     1     0     1
SMALL
USER_CHARGES
@<TRIPOS>ATOM
  1 O          -2.403748    2.966539   -1.560816 O         1 UNL       -0.6631 ****
  2 H          -2.603735    2.525956   -2.398794 H         1 UNL        0.4139 ****
  3 O          -7.899707   -1.302477    0.150993 O         1 UNL       -0.6979 ****
  4 H          -7.921062   -1.893425   -0.614829 H         1 UNL        0.4112 ****
  5 C           0.759245    0.348183    0.405178 C         1 UNL        0.1021 ****
  6 C          -0.335453    1.432229    0.221079 C         1 UNL        0.0167 ****
  7 H          -0.599564    1.749042    1.244722 H         1 UNL       -0.0002 ****
  8 C          -1.649354    0.919233   -0.392029 C         1 UNL       -0.0185 ****
  9 H          -1.465249    0.557646   -1.414309 H         1 UNL        0.0964 ****
 10 C          -2.206048   -0.245455    0.478956 C         1 UNL        0.0133 ****
 11 H          -2.488410    0.216196    1.439516 H         1 UNL        0.0165 ****
 12 C           1.891619    1.221431    1.030581 C         1 UNL        0.0393 ****
 13 H           1.513533    1.467491    2.033667 H         1 UNL        0.0083 ****
 14 C           0.190900   -0.729993    1.342762 C         1 UNL       -0.0952 ****
 15 H           0.014286   -0.281272    2.331013 H         1 UNL        0.0192 ****
 16 H           0.909142   -1.547064    1.493735 H         1 UNL        0.0192 ****
 17 C          -3.529481   -0.864122   -0.094160 C         1 UNL        0.0610 ****
 18 C           0.415374    2.617826   -0.417702 C         1 UNL       -0.0909 ****
 19 H          -0.080623    3.572123   -0.225503 H         1 UNL        0.0355 ****
 20 H           0.453650    2.511134   -1.506845 H         1 UNL        0.0355 ****
 21 C          -1.129610   -1.312175    0.802226 C         1 UNL       -0.0821 ****
 22 H          -0.912841   -1.903924   -0.093106 H         1 UNL        0.0409 ****
 23 H          -1.527578   -2.017778    1.539706 H         1 UNL        0.0409 ****
 24 C           1.844212    2.543714    0.203424 C         1 UNL       -0.0982 ****
 25 H           2.602484    2.550493   -0.584646 H         1 UNL        0.0314 ****
 26 H           2.053738    3.410284    0.839383 H         1 UNL        0.0314 ****
 27 C          -2.697653    2.043552   -0.493630 C         1 UNL        0.1788 ****
 28 H          -2.634306    2.670725    0.407053 H         1 UNL        0.1129 ****
 29 C           3.287400    0.574175    1.267081 C         1 UNL        0.0812 ****
 30 H           3.110299   -0.493176    1.471207 H         1 UNL       -0.0137 ****
 31 C           1.194227   -0.286404   -0.934372 C         1 UNL       -0.1676 ****
 32 H           0.365419   -0.787356   -1.441339 H         1 UNL        0.0332 ****
 33 H           1.594737    0.454477   -1.631654 H         1 UNL        0.0332 ****
 34 H           1.970973   -1.040267   -0.766526 H         1 UNL        0.0332 ****
 35 C          -4.492253    0.254996   -0.507150 C         1 UNL       -0.0653 ****
 36 C          -4.214770   -1.705797    1.027736 C         1 UNL       -0.0395 ****
 37 H          -4.220820   -1.108363    1.949885 H         1 UNL        0.0226 ****
 38 H          -3.610264   -2.594451    1.237508 H         1 UNL        0.0226 ****
 39 C          -4.102833    1.531227   -0.641752 C         1 UNL       -0.3319 ****
 40 H          -4.837262    2.292445   -0.904859 H         1 UNL        0.1745 ****
 41 C          -3.255559   -1.767709   -1.326418 C         1 UNL       -0.0509 ****
 42 H          -2.721838   -2.679694   -1.041903 H         1 UNL        0.0125 ****
 43 H          -4.184398   -2.077221   -1.812531 H         1 UNL        0.0125 ****
 44 H          -2.658312   -1.242503   -2.078045 H         1 UNL        0.0125 ****
 45 C          -5.938375   -0.131672   -0.753923 C         1 UNL       -0.2132 ****
 46 H          -6.542878    0.761433   -0.940042 H         1 UNL        0.0907 ****
 47 H          -6.007709   -0.754906   -1.660180 H         1 UNL        0.0907 ****
 48 C          -5.657419   -2.139820    0.725159 C         1 UNL       -0.1299 ****
 49 H          -5.679409   -2.834623   -0.127626 H         1 UNL        0.0478 ****
 50 H          -6.071970   -2.682811    1.582100 H         1 UNL        0.0478 ****
 51 C           4.273430    0.654082    0.076794 C         1 UNL       -0.0053 ****
 52 H           3.740283    0.524833   -0.870529 H         1 UNL       -0.0058 ****
 53 H           4.711805    1.661602    0.040175 H         1 UNL       -0.0058 ****
 54 C          -6.541924   -0.934381    0.407960 C         1 UNL        0.2995 ****
 55 H          -6.601914   -0.289298    1.293007 H         1 UNL        0.0872 ****
 56 C           3.930798    1.173788    2.534488 C         1 UNL       -0.1124 ****
 57 H           4.069352    2.256619    2.424784 H         1 UNL        0.0211 ****
 58 H           4.911746    0.734727    2.743011 H         1 UNL        0.0211 ****
 59 H           3.301113    1.006476    3.415440 H         1 UNL        0.0211 ****
 60 C           5.407083   -0.384141    0.129315 C         1 UNL        0.0035 ****
 61 H           5.961648   -0.282461    1.069810 H         1 UNL        0.0025 ****
 62 H           4.963058   -1.388858    0.141060 H         1 UNL        0.0025 ****
 63 C           6.375659   -0.254421   -1.057157 C         1 UNL       -0.0683 ****
 64 H           6.794477    0.762323   -1.057993 H         1 UNL        0.0052 ****
 65 H           5.801855   -0.345163   -1.990961 H         1 UNL        0.0052 ****
 66 C           7.548131   -1.261676   -1.108657 C         1 UNL        0.2615 ****
 67 H           8.119768   -1.012140   -2.014882 H         1 UNL       -0.0409 ****
 68 C           7.073643   -2.716399   -1.261390 C         1 UNL       -0.2053 ****
 69 H           6.544940   -3.065385   -0.366864 H         1 UNL        0.0398 ****
 70 H           7.924044   -3.389158   -1.421000 H         1 UNL        0.0398 ****
 71 H           6.395326   -2.827334   -2.115665 H         1 UNL        0.0398 ****
 72 C           8.507973   -1.116198    0.083928 C         1 UNL       -0.2124 ****
 73 H           8.030256   -1.409307    1.025932 H         1 UNL        0.0417 ****
 74 H           9.390508   -1.752950   -0.046157 H         1 UNL        0.0417 ****
 75 H           8.855580   -0.082076    0.192699 H         1 UNL        0.0417 ****
@<TRIPOS>BOND
    1     1     2 1
    2     1    27 1
    3     3     4 1
    4     3    54 1
    5     5     6 1
    6     5    12 1
    7     5    14 1
    8     5    31 1
    9     6     7 1
   10     6     8 1
   11     6    18 1
   12     8     9 1
   13     8    10 1
   14     8    27 1
   15    10    11 1
   16    10    17 1
   17    10    21 1
   18    12    13 1
   19    12    24 1
   20    12    29 1
   21    14    15 1
   22    14    16 1
   23    14    21 1
   24    17    35 1
   25    17    36 1
   26    17    41 1
   27    18    19 1
   28    18    20 1
   29    18    24 1
   30    21    22 1
   31    21    23 1
   32    24    25 1
   33    24    26 1
   34    27    28 1
   35    27    39 1
   36    29    30 1
   37    29    51 1
   38    29    56 1
   39    31    32 1
   40    31    33 1
   41    31    34 1
   42    35    39 1
   43    35    45 1
   44    36    37 1
   45    36    38 1
   46    36    48 1
   47    39    40 1
   48    41    42 1
   49    41    43 1
   50    41    44 1
   51    45    46 1
   52    45    47 1
   53    45    54 1
   54    48    49 1
   55    48    50 1
   56    48    54 1
   57    51    52 1
   58    51    53 1
   59    51    60 1
   60    54    55 1
   61    56    57 1
   62    56    58 1
   63    56    59 1
   64    60    61 1
   65    60    62 1
   66    60    63 1
   67    63    64 1
   68    63    65 1
   69    63    66 1
   70    66    67 1
   71    66    68 1
   72    66    72 1
   73    68    69 1
   74    68    70 1
   75    68    71 1
   76    72    73 1
   77    72    74 1
   78    72    75 1
@<TRIPOS>SUBSTRUCTURE
      1  UNL              1 ****               0 ****  ****  


