@<TRIPOS>MOLECULE
UNL
   75    78     1     0     1
SMALL
USER_CHARGES
@<TRIPOS>ATOM
  1 O          -2.206963   -3.296859    0.458300 O         1 UNL       -0.6631 ****
  2 H          -2.520075   -3.215953    1.370284 H         1 UNL        0.4139 ****
  3 O          -8.113469    0.707340   -0.179083 O         1 UNL       -0.6979 ****
  4 H          -8.261498    0.960332    0.743003 H         1 UNL        0.4112 ****
  5 C           0.707446    0.168067   -0.119961 C         1 UNL        0.1021 ****
  6 C          -0.259012   -1.008408   -0.443055 C         1 UNL        0.0167 ****
  7 H          -0.418238   -0.954477   -1.534265 H         1 UNL       -0.0002 ****
  8 C          -1.662887   -0.896878    0.178436 C         1 UNL       -0.0185 ****
  9 H          -1.583682   -0.924784    1.275189 H         1 UNL        0.0964 ****
 10 C          -2.321218    0.441867   -0.257547 C         1 UNL        0.0133 ****
 11 H          -2.478483    0.354834   -1.345304 H         1 UNL        0.0165 ****
 12 C           1.984747   -0.301899   -0.899647 C         1 UNL        0.0393 ****
 13 H           1.773209   -0.122459   -1.966037 H         1 UNL        0.0083 ****
 14 C           0.032719    1.453344   -0.638677 C         1 UNL       -0.0952 ****
 15 H          -0.041025    1.393970   -1.734275 H         1 UNL        0.0192 ****
 16 H           0.629019    2.343694   -0.415643 H         1 UNL        0.0192 ****
 17 C          -3.747758    0.660251    0.357040 C         1 UNL        0.0610 ****
 18 C           0.586459   -2.266451   -0.190736 C         1 UNL       -0.0909 ****
 19 H           0.202566   -3.141749   -0.719621 H         1 UNL        0.0355 ****
 20 H           0.580942   -2.528019    0.872757 H         1 UNL        0.0355 ****
 21 C          -1.374062    1.644240   -0.040802 C         1 UNL       -0.0821 ****
 22 H          -1.274525    1.848857    1.030697 H         1 UNL        0.0409 ****
 23 H          -1.817654    2.544853   -0.479640 H         1 UNL        0.0409 ****
 24 C           2.005323   -1.851550   -0.663879 C         1 UNL       -0.0982 ****
 25 H           2.762028   -2.115207    0.084720 H         1 UNL        0.0314 ****
 26 H           2.282552   -2.382587   -1.579558 H         1 UNL        0.0314 ****
 27 C          -2.553870   -2.083344   -0.238377 C         1 UNL        0.1788 ****
 28 H          -2.349785   -2.329032   -1.290263 H         1 UNL        0.1129 ****
 29 C           3.353629    0.360204   -0.597074 C         1 UNL        0.0812 ****
 30 H           3.604513    0.126880    0.448302 H         1 UNL       -0.0137 ****
 31 C           1.009664    0.279082    1.392551 C         1 UNL       -0.1676 ****
 32 H           0.101765    0.391475    1.990929 H         1 UNL        0.0332 ****
 33 H           1.536543   -0.602321    1.769677 H         1 UNL        0.0332 ****
 34 H           1.641090    1.149276    1.599179 H         1 UNL        0.0332 ****
 35 C          -4.573373   -0.624425    0.226920 C         1 UNL       -0.0653 ****
 36 C          -4.470356    1.786453   -0.446713 C         1 UNL       -0.0395 ****
 37 H          -4.339749    1.581235   -1.518211 H         1 UNL        0.0226 ****
 38 H          -3.979176    2.745717   -0.252427 H         1 UNL        0.0226 ****
 39 C          -4.022370   -1.810335   -0.070617 C         1 UNL       -0.3319 ****
 40 H          -4.660899   -2.686459   -0.183602 H         1 UNL        0.1745 ****
 41 C          -3.674161    1.058271    1.855608 C         1 UNL       -0.0509 ****
 42 H          -3.249195    2.058737    1.982297 H         1 UNL        0.0125 ****
 43 H          -4.664545    1.068380    2.318149 H         1 UNL        0.0125 ****
 44 H          -3.060845    0.352130    2.423678 H         1 UNL        0.0125 ****
 45 C          -6.071216   -0.510451    0.439340 C         1 UNL       -0.2132 ****
 46 H          -6.558938   -1.464971    0.218594 H         1 UNL        0.0907 ****
 47 H          -6.280655   -0.285760    1.497803 H         1 UNL        0.0907 ****
 48 C          -5.974058    1.924521   -0.162390 C         1 UNL       -0.1299 ****
 49 H          -6.141722    2.240692    0.877963 H         1 UNL        0.0478 ****
 50 H          -6.405193    2.704622   -0.800050 H         1 UNL        0.0478 ****
 51 C           4.475239   -0.250341   -1.492654 C         1 UNL       -0.0053 ****
 52 H           4.115024   -1.168738   -1.967258 H         1 UNL       -0.0058 ****
 53 H           4.690755    0.443349   -2.318089 H         1 UNL       -0.0058 ****
 54 C          -6.705164    0.604553   -0.405508 C         1 UNL        0.2995 ****
 55 H          -6.623032    0.337939   -1.466267 H         1 UNL        0.0872 ****
 56 C           3.340480    1.892954   -0.748770 C         1 UNL       -0.1124 ****
 57 H           2.965683    2.182536   -1.738407 H         1 UNL        0.0211 ****
 58 H           4.350211    2.302280   -0.649459 H         1 UNL        0.0211 ****
 59 H           2.715563    2.383789    0.001717 H         1 UNL        0.0211 ****
 60 C           5.789599   -0.597869   -0.766695 C         1 UNL        0.0035 ****
 61 H           5.564408   -1.319564    0.029623 H         1 UNL        0.0025 ****
 62 H           6.445255   -1.123170   -1.476254 H         1 UNL        0.0025 ****
 63 C           6.563560    0.595109   -0.185229 C         1 UNL       -0.0683 ****
 64 H           5.969661    1.084268    0.600274 H         1 UNL        0.0052 ****
 65 H           6.698809    1.344329   -0.978693 H         1 UNL        0.0052 ****
 66 C           7.950591    0.249653    0.395868 C         1 UNL        0.2615 ****
 67 H           8.518608   -0.272452   -0.389775 H         1 UNL       -0.0409 ****
 68 C           7.864750   -0.684098    1.614234 C         1 UNL       -0.2053 ****
 69 H           7.280254   -0.219206    2.419048 H         1 UNL        0.0398 ****
 70 H           8.862742   -0.900221    2.012296 H         1 UNL        0.0398 ****
 71 H           7.393855   -1.641242    1.369337 H         1 UNL        0.0398 ****
 72 C           8.719042    1.531345    0.755189 C         1 UNL       -0.2124 ****
 73 H           8.194306    2.095380    1.537108 H         1 UNL        0.0417 ****
 74 H           9.723130    1.301826    1.129812 H         1 UNL        0.0417 ****
 75 H           8.827426    2.189965   -0.114221 H         1 UNL        0.0417 ****
@<TRIPOS>BOND
    1     1     2 1
    2     1    27 1
    3     3     4 1
    4     3    54 1
    5     5     6 1
    6     5    12 1
    7     5    14 1
    8     5    31 1
    9     6     7 1
   10     6     8 1
   11     6    18 1
   12     8     9 1
   13     8    10 1
   14     8    27 1
   15    10    11 1
   16    10    17 1
   17    10    21 1
   18    12    13 1
   19    12    24 1
   20    12    29 1
   21    14    15 1
   22    14    16 1
   23    14    21 1
   24    17    35 1
   25    17    36 1
   26    17    41 1
   27    18    19 1
   28    18    20 1
   29    18    24 1
   30    21    22 1
   31    21    23 1
   32    24    25 1
   33    24    26 1
   34    27    28 1
   35    27    39 1
   36    29    30 1
   37    29    51 1
   38    29    56 1
   39    31    32 1
   40    31    33 1
   41    31    34 1
   42    35    39 1
   43    35    45 1
   44    36    37 1
   45    36    38 1
   46    36    48 1
   47    39    40 1
   48    41    42 1
   49    41    43 1
   50    41    44 1
   51    45    46 1
   52    45    47 1
   53    45    54 1
   54    48    49 1
   55    48    50 1
   56    48    54 1
   57    51    52 1
   58    51    53 1
   59    51    60 1
   60    54    55 1
   61    56    57 1
   62    56    58 1
   63    56    59 1
   64    60    61 1
   65    60    62 1
   66    60    63 1
   67    63    64 1
   68    63    65 1
   69    63    66 1
   70    66    67 1
   71    66    68 1
   72    66    72 1
   73    68    69 1
   74    68    70 1
   75    68    71 1
   76    72    73 1
   77    72    74 1
   78    72    75 1
@<TRIPOS>SUBSTRUCTURE
      1  UNL              1 ****               0 ****  ****  


