@<TRIPOS>MOLECULE
UNL
   75    78     1     0     1
SMALL
USER_CHARGES
@<TRIPOS>ATOM
  1 O           1.850794   -3.229772   -0.581066 O         1 UNL       -0.6631 ****
  2 H           2.304898   -3.195027   -1.434820 H         1 UNL        0.4139 ****
  3 O           8.068814   -0.037638    0.991642 O         1 UNL       -0.6979 ****
  4 H           8.385240    0.190166    0.106125 H         1 UNL        0.4112 ****
  5 C          -0.637638    0.591794   -0.395921 C         1 UNL        0.1021 ****
  6 C           0.107239   -0.698964    0.053858 C         1 UNL        0.0167 ****
  7 H           0.106981   -0.657284    1.157115 H         1 UNL       -0.0002 ****
  8 C           1.590733   -0.777643   -0.349388 C         1 UNL       -0.0185 ****
  9 H           1.673907   -0.800203   -1.445983 H         1 UNL        0.0964 ****
 10 C           2.346095    0.464627    0.199835 C         1 UNL        0.0133 ****
 11 H           2.324832    0.363670    1.297493 H         1 UNL        0.0165 ****
 12 C          -2.069071    0.297483    0.175535 C         1 UNL        0.0393 ****
 13 H          -1.997995    0.450946    1.264332 H         1 UNL        0.0083 ****
 14 C           0.114328    1.780036    0.236137 C         1 UNL       -0.0952 ****
 15 H           0.012472    1.718925    1.329375 H         1 UNL        0.0192 ****
 16 H          -0.317686    2.740196   -0.062414 H         1 UNL        0.0192 ****
 17 C           3.865083    0.489961   -0.190344 C         1 UNL        0.0610 ****
 18 C          -0.847049   -1.838137   -0.336371 C         1 UNL       -0.0909 ****
 19 H          -0.667246   -2.749507    0.238393 H         1 UNL        0.0355 ****
 20 H          -0.712218   -2.111583   -1.388222 H         1 UNL        0.0355 ****
 21 C           1.608201    1.779751   -0.139718 C         1 UNL       -0.0821 ****
 22 H           1.699814    1.989629   -1.210919 H         1 UNL        0.0409 ****
 23 H           2.094336    2.616715    0.373777 H         1 UNL        0.0409 ****
 24 C          -2.255386   -1.236228   -0.085088 C         1 UNL       -0.0982 ****
 25 H          -2.910337   -1.400478   -0.949352 H         1 UNL        0.0314 ****
 26 H          -2.743461   -1.719915    0.766532 H         1 UNL        0.0314 ****
 27 C           2.245475   -2.069366    0.177875 C         1 UNL        0.1788 ****
 28 H           1.855587   -2.280964    1.183697 H         1 UNL        0.1129 ****
 29 C          -3.277500    1.138131   -0.313529 C         1 UNL        0.0812 ****
 30 H          -3.406197    0.944711   -1.389528 H         1 UNL       -0.0137 ****
 31 C          -0.691694    0.731945   -1.934787 C         1 UNL       -0.1676 ****
 32 H           0.302795    0.725051   -2.388596 H         1 UNL        0.0332 ****
 33 H          -1.262842   -0.077667   -2.398545 H         1 UNL        0.0332 ****
 34 H          -1.170185    1.673974   -2.221905 H         1 UNL        0.0332 ****
 35 C           4.485734   -0.892001    0.041361 C         1 UNL       -0.0653 ****
 36 C           4.599920    1.513728    0.730706 C         1 UNL       -0.0395 ****
 37 H           4.284355    1.330977    1.767185 H         1 UNL        0.0226 ****
 38 H           4.273145    2.528748    0.481278 H         1 UNL        0.0226 ****
 39 C           3.745524   -1.993406    0.235024 C         1 UNL       -0.3319 ****
 40 H           4.239361   -2.945693    0.428272 H         1 UNL        0.1745 ****
 41 C           4.071052    0.888251   -1.676428 C         1 UNL       -0.0509 ****
 42 H           3.806556    1.936016   -1.849151 H         1 UNL        0.0125 ****
 43 H           5.112209    0.764088   -1.985366 H         1 UNL        0.0125 ****
 44 H           3.461886    0.268123   -2.341184 H         1 UNL        0.0125 ****
 45 C           6.000429   -0.977535    0.056284 C         1 UNL       -0.2132 ****
 46 H           6.320357   -1.987234    0.331716 H         1 UNL        0.0907 ****
 47 H           6.393571   -0.786176   -0.955410 H         1 UNL        0.0907 ****
 48 C           6.134231    1.451255    0.676135 C         1 UNL       -0.1299 ****
 49 H           6.495987    1.738818   -0.322281 H         1 UNL        0.0478 ****
 50 H           6.563262    2.169909    1.383599 H         1 UNL        0.0478 ****
 51 C          -4.577905    0.674901    0.392782 C         1 UNL       -0.0053 ****
 52 H          -4.597108   -0.418313    0.431157 H         1 UNL       -0.0058 ****
 53 H          -4.550124    1.015358    1.439768 H         1 UNL       -0.0058 ****
 54 C           6.641322    0.047191    1.004045 C         1 UNL        0.2995 ****
 55 H           6.366979   -0.202359    2.036287 H         1 UNL        0.0872 ****
 56 C          -3.081676    2.652829   -0.120745 C         1 UNL       -0.1124 ****
 57 H          -2.831261    2.884211    0.922154 H         1 UNL        0.0211 ****
 58 H          -3.991681    3.206043   -0.371816 H         1 UNL        0.0211 ****
 59 H          -2.284109    3.051919   -0.751580 H         1 UNL        0.0211 ****
 60 C          -5.880660    1.159616   -0.264589 C         1 UNL        0.0035 ****
 61 H          -5.873219    2.253030   -0.348491 H         1 UNL        0.0025 ****
 62 H          -5.923848    0.782369   -1.295414 H         1 UNL        0.0025 ****
 63 C          -7.161271    0.763444    0.494285 C         1 UNL       -0.0683 ****
 64 H          -8.021807    1.238474    0.000000 H         1 UNL        0.0052 ****
 65 H          -7.115673    1.197492    1.503674 H         1 UNL        0.0052 ****
 66 C          -7.458884   -0.745606    0.626568 C         1 UNL        0.2615 ****
 67 H          -6.610601   -1.222089    1.138303 H         1 UNL       -0.0409 ****
 68 C          -7.632288   -1.431213   -0.737944 C         1 UNL       -0.2053 ****
 69 H          -8.456673   -0.974376   -1.301030 H         1 UNL        0.0398 ****
 70 H          -7.864402   -2.495163   -0.614584 H         1 UNL        0.0398 ****
 71 H          -6.729706   -1.361109   -1.353596 H         1 UNL        0.0398 ****
 72 C          -8.703789   -0.964366    1.501404 C         1 UNL       -0.2124 ****
 73 H          -9.591121   -0.513103    1.038859 H         1 UNL        0.0417 ****
 74 H          -8.909316   -2.031710    1.641948 H         1 UNL        0.0417 ****
 75 H          -8.579904   -0.513190    2.492643 H         1 UNL        0.0417 ****
@<TRIPOS>BOND
    1     1     2 1
    2     1    27 1
    3     3     4 1
    4     3    54 1
    5     5     6 1
    6     5    12 1
    7     5    14 1
    8     5    31 1
    9     6     7 1
   10     6     8 1
   11     6    18 1
   12     8     9 1
   13     8    10 1
   14     8    27 1
   15    10    11 1
   16    10    17 1
   17    10    21 1
   18    12    13 1
   19    12    24 1
   20    12    29 1
   21    14    15 1
   22    14    16 1
   23    14    21 1
   24    17    35 1
   25    17    36 1
   26    17    41 1
   27    18    19 1
   28    18    20 1
   29    18    24 1
   30    21    22 1
   31    21    23 1
   32    24    25 1
   33    24    26 1
   34    27    28 1
   35    27    39 1
   36    29    30 1
   37    29    51 1
   38    29    56 1
   39    31    32 1
   40    31    33 1
   41    31    34 1
   42    35    39 1
   43    35    45 1
   44    36    37 1
   45    36    38 1
   46    36    48 1
   47    39    40 1
   48    41    42 1
   49    41    43 1
   50    41    44 1
   51    45    46 1
   52    45    47 1
   53    45    54 1
   54    48    49 1
   55    48    50 1
   56    48    54 1
   57    51    52 1
   58    51    53 1
   59    51    60 1
   60    54    55 1
   61    56    57 1
   62    56    58 1
   63    56    59 1
   64    60    61 1
   65    60    62 1
   66    60    63 1
   67    63    64 1
   68    63    65 1
   69    63    66 1
   70    66    67 1
   71    66    68 1
   72    66    72 1
   73    68    69 1
   74    68    70 1
   75    68    71 1
   76    72    73 1
   77    72    74 1
   78    72    75 1
@<TRIPOS>SUBSTRUCTURE
      1  UNL              1 ****               0 ****  ****  


