@<TRIPOS>MOLECULE
UNL
   75    78     1     0     1
SMALL
USER_CHARGES
@<TRIPOS>ATOM
  1 O           2.022763    3.298061    0.404103 O         1 UNL       -0.6631 ****
  2 H           2.248056    3.214057    1.341392 H         1 UNL        0.4139 ****
  3 O           8.043428   -0.587093    0.261740 O         1 UNL       -0.6979 ****
  4 H           8.111588   -0.855653    1.188778 H         1 UNL        0.4112 ****
  5 C          -0.738129   -0.218762   -0.454338 C         1 UNL        0.1021 ****
  6 C           0.212152    0.986026   -0.683817 C         1 UNL        0.0167 ****
  7 H           0.470070    0.947007   -1.756153 H         1 UNL       -0.0002 ****
  8 C           1.557312    0.892218    0.055892 C         1 UNL       -0.0185 ****
  9 H           1.384674    0.899947    1.142117 H         1 UNL        0.0964 ****
 10 C           2.277573   -0.428512   -0.346677 C         1 UNL        0.0133 ****
 11 H           2.533560   -0.309641   -1.412451 H         1 UNL        0.0165 ****
 12 C          -1.945348    0.226654   -1.337699 C         1 UNL        0.0393 ****
 13 H          -1.565500    0.145460   -2.366643 H         1 UNL        0.0083 ****
 14 C          -0.014123   -1.481573   -0.949645 C         1 UNL       -0.0952 ****
 15 H           0.140517   -1.397331   -2.035083 H         1 UNL        0.0192 ****
 16 H          -0.624143   -2.380664   -0.789101 H         1 UNL        0.0192 ****
 17 C           3.646552   -0.632590    0.392978 C         1 UNL        0.0610 ****
 18 C          -0.696065    2.218825   -0.502660 C         1 UNL       -0.0909 ****
 19 H          -0.312420    3.095024   -1.030587 H         1 UNL        0.0355 ****
 20 H          -0.756428    2.504309    0.552781 H         1 UNL        0.0355 ****
 21 C           1.347825   -1.664367   -0.251929 C         1 UNL       -0.0821 ****
 22 H           1.173822   -1.918106    0.798820 H         1 UNL        0.0409 ****
 23 H           1.851230   -2.532442   -0.691418 H         1 UNL        0.0409 ****
 24 C          -2.084992    1.751493   -1.037266 C         1 UNL       -0.0982 ****
 25 H          -2.862739    1.943395   -0.292743 H         1 UNL        0.0314 ****
 26 H          -2.377988    2.302214   -1.937362 H         1 UNL        0.0314 ****
 27 C           2.459332    2.098996   -0.265856 C         1 UNL        0.1788 ****
 28 H           2.349635    2.350547   -1.330414 H         1 UNL        0.1129 ****
 29 C          -3.243255   -0.632850   -1.311611 C         1 UNL        0.0812 ****
 30 H          -2.931247   -1.670075   -1.114054 H         1 UNL       -0.0137 ****
 31 C          -1.139478   -0.381998    1.028439 C         1 UNL       -0.1676 ****
 32 H          -0.274581   -0.561594    1.672308 H         1 UNL        0.0332 ****
 33 H          -1.649947    0.502936    1.418073 H         1 UNL        0.0332 ****
 34 H          -1.813664   -1.236644    1.150747 H         1 UNL        0.0332 ****
 35 C           4.454582    0.669803    0.363218 C         1 UNL       -0.0653 ****
 36 C           4.463127   -1.729171   -0.360201 C         1 UNL       -0.0395 ****
 37 H           4.426979   -1.506306   -1.435538 H         1 UNL        0.0226 ****
 38 H           3.976505   -2.701194   -0.228043 H         1 UNL        0.0226 ****
 39 C           3.910494    1.851251    0.036590 C         1 UNL       -0.3319 ****
 40 H           4.539389    2.740704   -0.001168 H         1 UNL        0.1745 ****
 41 C           3.444016   -1.060748    1.871309 C         1 UNL       -0.0509 ****
 42 H           3.030407   -2.071480    1.941228 H         1 UNL        0.0125 ****
 43 H           4.387958   -1.060779    2.422502 H         1 UNL        0.0125 ****
 44 H           2.766782   -0.377417    2.392740 H         1 UNL        0.0125 ****
 45 C           5.928273    0.578967    0.712259 C         1 UNL       -0.2132 ****
 46 H           6.414873    1.546716    0.556118 H         1 UNL        0.0907 ****
 47 H           6.043429    0.335920    1.781032 H         1 UNL        0.0907 ****
 48 C           5.937009   -1.844222    0.058877 C         1 UNL       -0.1299 ****
 49 H           6.014788   -2.178024    1.104309 H         1 UNL        0.0478 ****
 50 H           6.440807   -2.603131   -0.550444 H         1 UNL        0.0478 ****
 51 C          -4.276140   -0.251786   -0.223804 C         1 UNL       -0.0053 ****
 52 H          -3.766288    0.016868    0.707474 H         1 UNL       -0.0058 ****
 53 H          -4.811480    0.650977   -0.545909 H         1 UNL       -0.0058 ****
 54 C           6.660017   -0.506141   -0.091372 C         1 UNL        0.2995 ****
 55 H           6.669876   -0.219293   -1.149988 H         1 UNL        0.0872 ****
 56 C          -3.904793   -0.620902   -2.705134 C         1 UNL       -0.1124 ****
 57 H          -4.185731    0.399692   -2.993842 H         1 UNL        0.0211 ****
 58 H          -4.810960   -1.234437   -2.733671 H         1 UNL        0.0211 ****
 59 H          -3.222132   -1.006834   -3.470340 H         1 UNL        0.0211 ****
 60 C          -5.285529   -1.367989    0.095803 C         1 UNL        0.0035 ****
 61 H          -5.864183   -1.626215   -0.799237 H         1 UNL        0.0025 ****
 62 H          -4.727066   -2.277012    0.360788 H         1 UNL        0.0025 ****
 63 C          -6.243676   -1.045296    1.257181 C         1 UNL       -0.0683 ****
 64 H          -5.645509   -0.851680    2.159481 H         1 UNL        0.0052 ****
 65 H          -6.842312   -1.941683    1.477686 H         1 UNL        0.0052 ****
 66 C          -7.212053    0.139432    1.052566 C         1 UNL        0.2615 ****
 67 H          -6.616248    1.040754    0.849385 H         1 UNL       -0.0409 ****
 68 C          -8.012233    0.397831    2.339356 C         1 UNL       -0.2053 ****
 69 H          -8.634672   -0.469809    2.593711 H         1 UNL        0.0398 ****
 70 H          -8.677082    1.262014    2.228205 H         1 UNL        0.0398 ****
 71 H          -7.349064    0.592064    3.190214 H         1 UNL        0.0398 ****
 72 C          -8.160566   -0.076785   -0.137297 C         1 UNL       -0.2124 ****
 73 H          -8.763967   -0.982807    0.005584 H         1 UNL        0.0417 ****
 74 H          -8.850752    0.767591   -0.245758 H         1 UNL        0.0417 ****
 75 H          -7.619683   -0.182504   -1.083235 H         1 UNL        0.0417 ****
@<TRIPOS>BOND
    1     1     2 1
    2     1    27 1
    3     3     4 1
    4     3    54 1
    5     5     6 1
    6     5    12 1
    7     5    14 1
    8     5    31 1
    9     6     7 1
   10     6     8 1
   11     6    18 1
   12     8     9 1
   13     8    10 1
   14     8    27 1
   15    10    11 1
   16    10    17 1
   17    10    21 1
   18    12    13 1
   19    12    24 1
   20    12    29 1
   21    14    15 1
   22    14    16 1
   23    14    21 1
   24    17    35 1
   25    17    36 1
   26    17    41 1
   27    18    19 1
   28    18    20 1
   29    18    24 1
   30    21    22 1
   31    21    23 1
   32    24    25 1
   33    24    26 1
   34    27    28 1
   35    27    39 1
   36    29    30 1
   37    29    51 1
   38    29    56 1
   39    31    32 1
   40    31    33 1
   41    31    34 1
   42    35    39 1
   43    35    45 1
   44    36    37 1
   45    36    38 1
   46    36    48 1
   47    39    40 1
   48    41    42 1
   49    41    43 1
   50    41    44 1
   51    45    46 1
   52    45    47 1
   53    45    54 1
   54    48    49 1
   55    48    50 1
   56    48    54 1
   57    51    52 1
   58    51    53 1
   59    51    60 1
   60    54    55 1
   61    56    57 1
   62    56    58 1
   63    56    59 1
   64    60    61 1
   65    60    62 1
   66    60    63 1
   67    63    64 1
   68    63    65 1
   69    63    66 1
   70    66    67 1
   71    66    68 1
   72    66    72 1
   73    68    69 1
   74    68    70 1
   75    68    71 1
   76    72    73 1
   77    72    74 1
   78    72    75 1
@<TRIPOS>SUBSTRUCTURE
      1  UNL              1 ****               0 ****  ****  


