@<TRIPOS>MOLECULE
UNL
   75    78     1     0     1
SMALL
USER_CHARGES
@<TRIPOS>ATOM
  1 O          -1.952961   -2.246793    2.476543 O         1 UNL       -0.6631 ****
  2 H          -2.108960   -1.540793    3.119616 H         1 UNL        0.4139 ****
  3 O          -7.814026    0.984302   -0.087789 O         1 UNL       -0.6979 ****
  4 H          -7.807442    1.808496    0.418992 H         1 UNL        0.4112 ****
  5 C           0.875664   -0.430856   -0.594537 C         1 UNL        0.1021 ****
  6 C          -0.134771   -1.402182    0.070749 C         1 UNL        0.0167 ****
  7 H          -0.465878   -2.071220   -0.742082 H         1 UNL       -0.0002 ****
  8 C          -1.420052   -0.735733    0.590055 C         1 UNL       -0.0185 ****
  9 H          -1.172161   -0.027996    1.394691 H         1 UNL        0.0964 ****
 10 C          -2.114624    0.026545   -0.576795 C         1 UNL        0.0133 ****
 11 H          -2.447899   -0.754547   -1.279876 H         1 UNL        0.0165 ****
 12 C           1.997727   -1.444276   -0.981396 C         1 UNL        0.0393 ****
 13 H           1.548294   -2.042397   -1.787594 H         1 UNL        0.0083 ****
 14 C           0.167798    0.228377   -1.789980 C         1 UNL       -0.0952 ****
 15 H          -0.067196   -0.547311   -2.533131 H         1 UNL        0.0192 ****
 16 H           0.822326    0.954176   -2.291026 H         1 UNL        0.0192 ****
 17 C          -3.420207    0.774887   -0.131843 C         1 UNL        0.0610 ****
 18 C           0.735466   -2.261582    1.009725 C         1 UNL       -0.0909 ****
 19 H           0.280691   -3.232398    1.220166 H         1 UNL        0.0355 ****
 20 H           0.861055   -1.769964    1.980126 H         1 UNL        0.0355 ****
 21 C          -1.132694    0.934206   -1.359315 C         1 UNL       -0.0821 ****
 22 H          -0.874652    1.809671   -0.754616 H         1 UNL        0.0409 ****
 23 H          -1.631338    1.323006   -2.253905 H         1 UNL        0.0409 ****
 24 C           2.098828   -2.382372    0.261397 C         1 UNL       -0.0982 ****
 25 H           2.921757   -2.088257    0.919133 H         1 UNL        0.0314 ****
 26 H           2.302345   -3.414354   -0.043256 H         1 UNL        0.0314 ****
 27 C          -2.388376   -1.775207    1.186072 C         1 UNL        0.1788 ****
 28 H          -2.362816   -2.681618    0.564500 H         1 UNL        0.1129 ****
 29 C           3.327943   -0.895234   -1.573887 C         1 UNL        0.0812 ****
 30 H           3.071847    0.018962   -2.131566 H         1 UNL       -0.0137 ****
 31 C           1.388366    0.650141    0.382524 C         1 UNL       -0.1676 ****
 32 H           0.579913    1.280797    0.761390 H         1 UNL        0.0332 ****
 33 H           1.889683    0.216731    1.252175 H         1 UNL        0.0332 ****
 34 H           2.103027    1.311329   -0.119382 H         1 UNL        0.0332 ****
 35 C          -4.278329   -0.147342    0.741774 C         1 UNL       -0.0653 ****
 36 C          -4.243704    1.143531   -1.405620 C         1 UNL       -0.0395 ****
 37 H          -4.290682    0.256784   -2.052782 H         1 UNL        0.0226 ****
 38 H          -3.711681    1.914153   -1.973272 H         1 UNL        0.0226 ****
 39 C          -3.804338   -1.280383    1.280345 C         1 UNL       -0.3319 ****
 40 H          -4.468332   -1.916029    1.866111 H         1 UNL        0.1745 ****
 41 C          -3.099712    2.065330    0.669391 C         1 UNL       -0.0509 ****
 42 H          -2.644266    2.828768    0.031234 H         1 UNL        0.0125 ****
 43 H          -4.002563    2.504574    1.101630 H         1 UNL        0.0125 ****
 44 H          -2.414428    1.858234    1.496992 H         1 UNL        0.0125 ****
 45 C          -5.719675    0.264201    0.976053 C         1 UNL       -0.2132 ****
 46 H          -6.253174   -0.519335    1.522998 H         1 UNL        0.0907 ****
 47 H          -5.751150    1.167463    1.606715 H         1 UNL        0.0907 ****
 48 C          -5.679410    1.619846   -1.135709 C         1 UNL       -0.1299 ****
 49 H          -5.671690    2.571853   -0.584235 H         1 UNL        0.0478 ****
 50 H          -6.194284    1.811450   -2.083983 H         1 UNL        0.0478 ****
 51 C           4.417073   -0.510747   -0.542063 C         1 UNL       -0.0053 ****
 52 H           3.956049   -0.083371    0.352278 H         1 UNL       -0.0058 ****
 53 H           4.933784   -1.422515   -0.208687 H         1 UNL       -0.0058 ****
 54 C          -6.462550    0.584174   -0.329542 C         1 UNL        0.2995 ****
 55 H          -6.556733   -0.335322   -0.920070 H         1 UNL        0.0872 ****
 56 C           3.894610   -1.902487   -2.595813 C         1 UNL       -0.1124 ****
 57 H           4.094929   -2.869318   -2.117538 H         1 UNL        0.0211 ****
 58 H           4.832579   -1.553200   -3.039457 H         1 UNL        0.0211 ****
 59 H           3.187786   -2.076251   -3.414798 H         1 UNL        0.0211 ****
 60 C           5.457632    0.483347   -1.085884 C         1 UNL        0.0035 ****
 61 H           5.862607    0.108602   -2.034304 H         1 UNL        0.0025 ****
 62 H           4.956146    1.429400   -1.331871 H         1 UNL        0.0025 ****
 63 C           6.645715    0.746524   -0.142536 C         1 UNL       -0.0683 ****
 64 H           7.372156    1.388409   -0.662895 H         1 UNL        0.0052 ****
 65 H           7.161794   -0.207140    0.040047 H         1 UNL        0.0052 ****
 66 C           6.324235    1.394610    1.221089 C         1 UNL        0.2615 ****
 67 H           5.604088    0.752064    1.747624 H         1 UNL       -0.0409 ****
 68 C           5.693757    2.788533    1.073506 C         1 UNL       -0.2053 ****
 69 H           6.368985    3.465566    0.534051 H         1 UNL        0.0398 ****
 70 H           5.492739    3.233231    2.054849 H         1 UNL        0.0398 ****
 71 H           4.746083    2.758151    0.526149 H         1 UNL        0.0398 ****
 72 C           7.593172    1.467016    2.085602 C         1 UNL       -0.2124 ****
 73 H           8.353938    2.100214    1.611038 H         1 UNL        0.0417 ****
 74 H           7.378650    1.890034    3.073681 H         1 UNL        0.0417 ****
 75 H           8.032700    0.473957    2.233918 H         1 UNL        0.0417 ****
@<TRIPOS>BOND
    1     1     2 1
    2     1    27 1
    3     3     4 1
    4     3    54 1
    5     5     6 1
    6     5    12 1
    7     5    14 1
    8     5    31 1
    9     6     7 1
   10     6     8 1
   11     6    18 1
   12     8     9 1
   13     8    10 1
   14     8    27 1
   15    10    11 1
   16    10    17 1
   17    10    21 1
   18    12    13 1
   19    12    24 1
   20    12    29 1
   21    14    15 1
   22    14    16 1
   23    14    21 1
   24    17    35 1
   25    17    36 1
   26    17    41 1
   27    18    19 1
   28    18    20 1
   29    18    24 1
   30    21    22 1
   31    21    23 1
   32    24    25 1
   33    24    26 1
   34    27    28 1
   35    27    39 1
   36    29    30 1
   37    29    51 1
   38    29    56 1
   39    31    32 1
   40    31    33 1
   41    31    34 1
   42    35    39 1
   43    35    45 1
   44    36    37 1
   45    36    38 1
   46    36    48 1
   47    39    40 1
   48    41    42 1
   49    41    43 1
   50    41    44 1
   51    45    46 1
   52    45    47 1
   53    45    54 1
   54    48    49 1
   55    48    50 1
   56    48    54 1
   57    51    52 1
   58    51    53 1
   59    51    60 1
   60    54    55 1
   61    56    57 1
   62    56    58 1
   63    56    59 1
   64    60    61 1
   65    60    62 1
   66    60    63 1
   67    63    64 1
   68    63    65 1
   69    63    66 1
   70    66    67 1
   71    66    68 1
   72    66    72 1
   73    68    69 1
   74    68    70 1
   75    68    71 1
   76    72    73 1
   77    72    74 1
   78    72    75 1
@<TRIPOS>SUBSTRUCTURE
      1  UNL              1 ****               0 ****  ****  


