@<TRIPOS>MOLECULE
UNL
   75    78     1     0     1
SMALL
USER_CHARGES
@<TRIPOS>ATOM
  1 O           1.554289   -0.225549    2.886271 O         1 UNL       -0.7276 ****
  2 H           1.871614    0.674006    2.730460 H         1 UNL        0.4037 ****
  3 O           7.187501    1.970296   -0.037547 O         1 UNL       -0.7383 ****
  4 H           7.588965    1.415951   -0.721432 H         1 UNL        0.4092 ****
  5 C          -1.033333   -1.223183   -0.465203 C         1 UNL        0.4346 ****
  6 C          -0.152555   -1.213874    0.817730 C         1 UNL        0.2014 ****
  7 H          -0.414766   -0.288755    1.349454 H         1 UNL       -0.0588 ****
  8 C           1.357931   -1.132229    0.567367 C         1 UNL       -0.0531 ****
  9 H           1.689768   -2.044291    0.050851 H         1 UNL       -0.0475 ****
 10 C           1.698443    0.101433   -0.308261 C         1 UNL        0.0052 ****
 11 H           1.492808    0.983269    0.321218 H         1 UNL       -0.0359 ****
 12 C          -2.444648   -1.324883    0.211917 C         1 UNL       -0.0764 ****
 13 H          -2.571901   -0.357046    0.716167 H         1 UNL       -0.0217 ****
 14 C          -0.730727    0.086704   -1.217973 C         1 UNL       -0.1715 ****
 15 H          -1.048823    0.936025   -0.597394 H         1 UNL        0.0087 ****
 16 H          -1.297436    0.151690   -2.154406 H         1 UNL        0.0087 ****
 17 C           3.224575    0.175551   -0.665486 C         1 UNL        0.3688 ****
 18 C          -0.703098   -2.369363    1.671232 C         1 UNL       -0.1189 ****
 19 H          -0.500491   -2.219228    2.735369 H         1 UNL        0.0133 ****
 20 H          -0.240039   -3.322754    1.386088 H         1 UNL        0.0133 ****
 21 C           0.771138    0.223301   -1.541907 C         1 UNL       -0.0248 ****
 22 H           1.035877   -0.537480   -2.283209 H         1 UNL        0.0170 ****
 23 H           0.936106    1.190451   -2.030629 H         1 UNL        0.0170 ****
 24 C          -2.225411   -2.372747    1.350036 C         1 UNL       -0.0103 ****
 25 H          -2.554837   -3.369674    1.039961 H         1 UNL        0.0034 ****
 26 H          -2.827251   -2.110526    2.227016 H         1 UNL        0.0034 ****
 27 C           2.150501   -1.090809    1.891134 C         1 UNL        0.5223 ****
 28 H           2.102962   -2.082712    2.355114 H         1 UNL       -0.0026 ****
 29 C          -3.774613   -1.544305   -0.565092 C         1 UNL        0.2783 ****
 30 H          -4.529271   -1.618287    0.232755 H         1 UNL       -0.0654 ****
 31 C          -0.729418   -2.439938   -1.369908 C         1 UNL       -0.4761 ****
 32 H           0.338626   -2.537997   -1.581102 H         1 UNL        0.0922 ****
 33 H          -1.054954   -3.381105   -0.919543 H         1 UNL        0.0922 ****
 34 H          -1.237643   -2.343477   -2.333804 H         1 UNL        0.0922 ****
 35 C           4.079145   -0.137828    0.569927 C         1 UNL       -0.0692 ****
 36 C           3.557908    1.625112   -1.136618 C         1 UNL       -0.1164 ****
 37 H           3.121973    2.329980   -0.414961 H         1 UNL        0.0157 ****
 38 H           3.062772    1.817558   -2.094390 H         1 UNL        0.0157 ****
 39 C           3.586108   -0.705074    1.683282 C         1 UNL       -0.4758 ****
 40 H           4.249209   -0.877120    2.530643 H         1 UNL        0.1785 ****
 41 C           3.599069   -0.832951   -1.785706 C         1 UNL       -0.1547 ****
 42 H           3.155182   -0.546208   -2.743711 H         1 UNL        0.0192 ****
 43 H           4.680362   -0.885077   -1.935226 H         1 UNL        0.0192 ****
 44 H           3.259106   -1.843306   -1.539229 H         1 UNL        0.0192 ****
 45 C           5.553463    0.213639    0.490148 C         1 UNL       -0.1218 ****
 46 H           6.036233    0.041899    1.457171 H         1 UNL        0.0442 ****
 47 H           6.055333   -0.447331   -0.234467 H         1 UNL        0.0442 ****
 48 C           5.056462    1.936484   -1.269491 C         1 UNL       -0.1352 ****
 49 H           5.506671    1.328169   -2.067803 H         1 UNL        0.0335 ****
 50 H           5.197518    2.984574   -1.556882 H         1 UNL        0.0335 ****
 51 C          -4.197576   -0.358769   -1.467136 C         1 UNL       -0.0700 ****
 52 H          -3.468848   -0.251674   -2.280844 H         1 UNL       -0.0054 ****
 53 H          -5.143346   -0.637849   -1.954121 H         1 UNL       -0.0054 ****
 54 C           5.793274    1.663234    0.041440 C         1 UNL        0.4613 ****
 55 H           5.413474    2.342148    0.814912 H         1 UNL        0.0120 ****
 56 C          -3.902431   -2.851014   -1.374362 C         1 UNL       -0.3123 ****
 57 H          -3.351909   -2.806945   -2.318719 H         1 UNL        0.0634 ****
 58 H          -4.955346   -3.026748   -1.622806 H         1 UNL        0.0634 ****
 59 H          -3.549261   -3.726687   -0.822068 H         1 UNL        0.0634 ****
 60 C          -4.400225    1.014187   -0.796861 C         1 UNL        0.1167 ****
 61 H          -3.460175    1.357434   -0.350399 H         1 UNL       -0.0313 ****
 62 H          -4.634289    1.734077   -1.591472 H         1 UNL       -0.0313 ****
 63 C          -5.519602    1.038135    0.257341 C         1 UNL       -0.1092 ****
 64 H          -5.248558    0.376974    1.091137 H         1 UNL        0.0005 ****
 65 H          -6.429300    0.607762   -0.187066 H         1 UNL        0.0005 ****
 66 C          -5.876899    2.423713    0.846459 C         1 UNL        0.4198 ****
 67 H          -6.669340    2.240114    1.587081 H         1 UNL       -0.0869 ****
 68 C          -6.457935    3.385909   -0.203021 C         1 UNL       -0.2895 ****
 69 H          -5.709097    3.672861   -0.950207 H         1 UNL        0.0537 ****
 70 H          -6.815114    4.307681    0.270303 H         1 UNL        0.0537 ****
 71 H          -7.304113    2.933691   -0.733644 H         1 UNL        0.0537 ****
 72 C          -4.699610    3.069408    1.595992 C         1 UNL       -0.2910 ****
 73 H          -3.887014    3.342138    0.912702 H         1 UNL        0.0548 ****
 74 H          -5.017910    3.985345    2.106854 H         1 UNL        0.0548 ****
 75 H          -4.287453    2.391447    2.352608 H         1 UNL        0.0548 ****
@<TRIPOS>BOND
    1     1     2 1
    2     1    27 1
    3     3     4 1
    4     3    54 1
    5     5     6 1
    6     5    12 1
    7     5    14 1
    8     5    31 1
    9     6     7 1
   10     6     8 1
   11     6    18 1
   12     8     9 1
   13     8    10 1
   14     8    27 1
   15    10    11 1
   16    10    17 1
   17    10    21 1
   18    12    13 1
   19    12    24 1
   20    12    29 1
   21    14    15 1
   22    14    16 1
   23    14    21 1
   24    17    35 1
   25    17    36 1
   26    17    41 1
   27    18    19 1
   28    18    20 1
   29    18    24 1
   30    21    22 1
   31    21    23 1
   32    24    25 1
   33    24    26 1
   34    27    28 1
   35    27    39 1
   36    29    30 1
   37    29    51 1
   38    29    56 1
   39    31    32 1
   40    31    33 1
   41    31    34 1
   42    35    39 1
   43    35    45 1
   44    36    37 1
   45    36    38 1
   46    36    48 1
   47    39    40 1
   48    41    42 1
   49    41    43 1
   50    41    44 1
   51    45    46 1
   52    45    47 1
   53    45    54 1
   54    48    49 1
   55    48    50 1
   56    48    54 1
   57    51    52 1
   58    51    53 1
   59    51    60 1
   60    54    55 1
   61    56    57 1
   62    56    58 1
   63    56    59 1
   64    60    61 1
   65    60    62 1
   66    60    63 1
   67    63    64 1
   68    63    65 1
   69    63    66 1
   70    66    67 1
   71    66    68 1
   72    66    72 1
   73    68    69 1
   74    68    70 1
   75    68    71 1
   76    72    73 1
   77    72    74 1
   78    72    75 1
@<TRIPOS>SUBSTRUCTURE
      1  UNL              1 ****               0 ****  ****  


