@<TRIPOS>MOLECULE
UNL
   75    78     1     0     1
SMALL
USER_CHARGES
@<TRIPOS>ATOM
  1 O           1.450436    2.727210   -0.323948 O         1 UNL       -0.7276 ****
  2 H           1.966847    2.562157   -1.124127 H         1 UNL        0.4037 ****
  3 O           7.818903    0.732025   -1.070301 O         1 UNL       -0.7383 ****
  4 H           8.205141    0.179265   -0.376439 H         1 UNL        0.4092 ****
  5 C          -0.699633   -0.953683    0.544176 C         1 UNL        0.4346 ****
  6 C          -0.058371    0.461886    0.543018 C         1 UNL        0.2014 ****
  7 H          -0.207624    0.849955   -0.474605 H         1 UNL       -0.0588 ****
  8 C           1.456035    0.488721    0.782276 C         1 UNL       -0.0531 ****
  9 H           1.667520    0.112325    1.793681 H         1 UNL       -0.0475 ****
 10 C           2.184982   -0.401860   -0.255803 C         1 UNL        0.0052 ****
 11 H           2.064813    0.107434   -1.226533 H         1 UNL       -0.0359 ****
 12 C          -2.200957   -0.563737    0.313008 C         1 UNL       -0.0764 ****
 13 H          -2.268224   -0.254466   -0.740423 H         1 UNL       -0.0217 ****
 14 C          -0.013070   -1.742961   -0.588903 C         1 UNL       -0.1715 ****
 15 H          -0.255348   -1.263013   -1.548021 H         1 UNL        0.0087 ****
 16 H          -0.384045   -2.771034   -0.652560 H         1 UNL        0.0087 ****
 17 C           3.730903   -0.475981    0.001589 C         1 UNL        0.3688 ****
 18 C          -0.966323    1.299830    1.454966 C         1 UNL       -0.1189 ****
 19 H          -0.908739    2.365591    1.216934 H         1 UNL        0.0133 ****
 20 H          -0.677064    1.188613    2.507923 H         1 UNL        0.0133 ****
 21 C           1.518054   -1.789890   -0.407277 C         1 UNL       -0.0248 ****
 22 H           1.742388   -2.407105    0.468797 H         1 UNL        0.0170 ****
 23 H           1.954069   -2.315579   -1.264671 H         1 UNL        0.0170 ****
 24 C          -2.382299    0.710462    1.203159 C         1 UNL       -0.0103 ****
 25 H          -2.867540    0.446314    2.150355 H         1 UNL        0.0034 ****
 26 H          -3.037665    1.438606    0.715374 H         1 UNL        0.0034 ****
 27 C           2.010810    1.928365    0.744912 C         1 UNL        0.5223 ****
 28 H           1.683141    2.450475    1.651228 H         1 UNL       -0.0026 ****
 29 C          -3.309243   -1.618149    0.556171 C         1 UNL        0.2783 ****
 30 H          -3.252112   -1.914387    1.613899 H         1 UNL       -0.0654 ****
 31 C          -0.536426   -1.683754    1.896756 C         1 UNL       -0.4761 ****
 32 H           0.510850   -1.783353    2.193448 H         1 UNL        0.0922 ****
 33 H          -1.051978   -1.160974    2.708063 H         1 UNL        0.0922 ****
 34 H          -0.953512   -2.695198    1.844147 H         1 UNL        0.0922 ****
 35 C           4.286102    0.916396    0.329895 C         1 UNL       -0.0692 ****
 36 C           4.429231   -0.988391   -1.296094 C         1 UNL       -0.1164 ****
 37 H           4.034994   -0.416438   -2.147630 H         1 UNL        0.0157 ****
 38 H           4.149580   -2.033058   -1.469401 H         1 UNL        0.0157 ****
 39 C           3.509325    1.959971    0.664473 C         1 UNL       -0.4758 ****
 40 H           3.972974    2.925939    0.862581 H         1 UNL        0.1785 ****
 41 C           4.069217   -1.426284    1.182481 C         1 UNL       -0.1547 ****
 42 H           3.861020   -2.469295    0.925883 H         1 UNL        0.0192 ****
 43 H           5.125454   -1.367445    1.456573 H         1 UNL        0.0192 ****
 44 H           3.490403   -1.170771    2.075123 H         1 UNL        0.0192 ****
 45 C           5.793621    1.083182    0.274717 C         1 UNL       -0.1218 ****
 46 H           6.063833    2.133088    0.424386 H         1 UNL        0.0442 ****
 47 H           6.261492    0.517226    1.096073 H         1 UNL        0.0442 ****
 48 C           5.960681   -0.866202   -1.301190 C         1 UNL       -0.1352 ****
 49 H           6.401366   -1.517781   -0.532232 H         1 UNL        0.0335 ****
 50 H           6.360535   -1.203172   -2.264276 H         1 UNL        0.0335 ****
 51 C          -4.733435   -1.026544    0.370077 C         1 UNL       -0.0700 ****
 52 H          -5.454551   -1.809356    0.647591 H         1 UNL       -0.0054 ****
 53 H          -4.880764   -0.216859    1.093505 H         1 UNL       -0.0054 ****
 54 C           6.397938    0.575518   -1.043335 C         1 UNL        0.4613 ****
 55 H           6.043485    1.210481   -1.864681 H         1 UNL        0.0120 ****
 56 C          -3.144536   -2.898949   -0.283730 C         1 UNL       -0.3123 ****
 57 H          -3.014438   -2.678243   -1.348972 H         1 UNL        0.0634 ****
 58 H          -4.029075   -3.539138   -0.183127 H         1 UNL        0.0634 ****
 59 H          -2.281038   -3.487827    0.035888 H         1 UNL        0.0634 ****
 60 C          -5.085325   -0.523168   -1.040338 C         1 UNL        0.1167 ****
 61 H          -4.448465    0.329475   -1.306427 H         1 UNL       -0.0313 ****
 62 H          -4.857729   -1.306443   -1.774192 H         1 UNL       -0.0313 ****
 63 C          -6.567213   -0.139535   -1.216087 C         1 UNL       -0.1092 ****
 64 H          -7.182559   -1.022884   -0.991399 H         1 UNL        0.0005 ****
 65 H          -6.746982    0.092377   -2.276477 H         1 UNL        0.0005 ****
 66 C          -7.088136    1.043860   -0.372778 C         1 UNL        0.4198 ****
 67 H          -6.907210    0.818978    0.688028 H         1 UNL       -0.0869 ****
 68 C          -8.606440    1.197945   -0.557425 C         1 UNL       -0.2895 ****
 69 H          -8.852103    1.425089   -1.602908 H         1 UNL        0.0537 ****
 70 H          -9.002403    2.011842    0.060687 H         1 UNL        0.0537 ****
 71 H          -9.137739    0.279254   -0.283214 H         1 UNL        0.0537 ****
 72 C          -6.369910    2.361279   -0.705617 C         1 UNL       -0.2910 ****
 73 H          -6.507465    2.622739   -1.762992 H         1 UNL        0.0548 ****
 74 H          -6.768204    3.187140   -0.105255 H         1 UNL        0.0548 ****
 75 H          -5.293545    2.305605   -0.514188 H         1 UNL        0.0548 ****
@<TRIPOS>BOND
    1     1     2 1
    2     1    27 1
    3     3     4 1
    4     3    54 1
    5     5     6 1
    6     5    12 1
    7     5    14 1
    8     5    31 1
    9     6     7 1
   10     6     8 1
   11     6    18 1
   12     8     9 1
   13     8    10 1
   14     8    27 1
   15    10    11 1
   16    10    17 1
   17    10    21 1
   18    12    13 1
   19    12    24 1
   20    12    29 1
   21    14    15 1
   22    14    16 1
   23    14    21 1
   24    17    35 1
   25    17    36 1
   26    17    41 1
   27    18    19 1
   28    18    20 1
   29    18    24 1
   30    21    22 1
   31    21    23 1
   32    24    25 1
   33    24    26 1
   34    27    28 1
   35    27    39 1
   36    29    30 1
   37    29    51 1
   38    29    56 1
   39    31    32 1
   40    31    33 1
   41    31    34 1
   42    35    39 1
   43    35    45 1
   44    36    37 1
   45    36    38 1
   46    36    48 1
   47    39    40 1
   48    41    42 1
   49    41    43 1
   50    41    44 1
   51    45    46 1
   52    45    47 1
   53    45    54 1
   54    48    49 1
   55    48    50 1
   56    48    54 1
   57    51    52 1
   58    51    53 1
   59    51    60 1
   60    54    55 1
   61    56    57 1
   62    56    58 1
   63    56    59 1
   64    60    61 1
   65    60    62 1
   66    60    63 1
   67    63    64 1
   68    63    65 1
   69    63    66 1
   70    66    67 1
   71    66    68 1
   72    66    72 1
   73    68    69 1
   74    68    70 1
   75    68    71 1
   76    72    73 1
   77    72    74 1
   78    72    75 1
@<TRIPOS>SUBSTRUCTURE
      1  UNL              1 ****               0 ****  ****  


