@<TRIPOS>MOLECULE
UNL
   75    78     1     0     1
SMALL
USER_CHARGES
@<TRIPOS>ATOM
  1 O          -2.524749   -3.065182   -0.218471 O         1 UNL       -0.7276 ****
  2 H          -3.073050   -2.738942   -0.944494 H         1 UNL        0.4037 ****
  3 O          -7.517538    1.427861   -0.241865 O         1 UNL       -0.7383 ****
  4 H          -7.499476    2.128299    0.425398 H         1 UNL        0.4092 ****
  5 C           1.057876   -0.607590   -0.169836 C         1 UNL        0.4346 ****
  6 C          -0.081352   -1.620762    0.110258 C         1 UNL        0.2014 ****
  7 H          -0.307283   -2.087035   -0.858638 H         1 UNL       -0.0588 ****
  8 C          -1.395289   -0.985895    0.578531 C         1 UNL       -0.0531 ****
  9 H          -1.237285   -0.501478    1.552891 H         1 UNL       -0.0475 ****
 10 C          -1.876447    0.074111   -0.448775 C         1 UNL        0.0052 ****
 11 H          -2.169618   -0.493624   -1.347517 H         1 UNL       -0.0359 ****
 12 C           2.184063   -1.604993   -0.587351 C         1 UNL       -0.0764 ****
 13 H           1.824655   -2.019872   -1.539921 H         1 UNL       -0.0217 ****
 14 C           0.568304    0.329250   -1.287206 C         1 UNL       -0.1715 ****
 15 H           0.409083   -0.262837   -2.199949 H         1 UNL        0.0087 ****
 16 H           1.322730    1.088626   -1.533211 H         1 UNL        0.0087 ****
 17 C          -3.172559    0.818423    0.029498 C         1 UNL        0.3688 ****
 18 C           0.581613   -2.716286    0.966356 C         1 UNL       -0.1189 ****
 19 H           0.075877   -3.678726    0.849158 H         1 UNL        0.0133 ****
 20 H           0.542961   -2.461314    2.033209 H         1 UNL        0.0133 ****
 21 C          -0.745835    1.036517   -0.895540 C         1 UNL       -0.0248 ****
 22 H          -0.529379    1.752409   -0.096395 H         1 UNL        0.0170 ****
 23 H          -1.090574    1.633172   -1.747794 H         1 UNL        0.0170 ****
 24 C           2.058674   -2.753390    0.461676 C         1 UNL       -0.0103 ****
 25 H           2.747733   -2.606594    1.297873 H         1 UNL        0.0034 ****
 26 H           2.312028   -3.721921    0.018344 H         1 UNL        0.0034 ****
 27 C          -2.490216   -2.048118    0.810545 C         1 UNL        0.5223 ****
 28 H          -2.239323   -2.611643    1.716694 H         1 UNL       -0.0026 ****
 29 C           3.611462   -1.058860   -0.902320 C         1 UNL        0.2783 ****
 30 H           3.472169   -0.044485   -1.303580 H         1 UNL       -0.0654 ****
 31 C           1.449349    0.209293    1.081027 C         1 UNL       -0.4761 ****
 32 H           0.605792    0.771727    1.489375 H         1 UNL        0.0922 ****
 33 H           1.830161   -0.425596    1.885875 H         1 UNL        0.0922 ****
 34 H           2.229360    0.937088    0.834500 H         1 UNL        0.0922 ****
 35 C          -4.178318   -0.181478    0.616186 C         1 UNL       -0.0692 ****
 36 C          -3.833397    1.512917   -1.201495 C         1 UNL       -0.1164 ****
 37 H          -3.882037    0.784063   -2.022548 H         1 UNL        0.0157 ****
 38 H          -3.187460    2.326531   -1.548227 H         1 UNL        0.0157 ****
 39 C          -3.853150   -1.438069    0.962173 C         1 UNL       -0.4758 ****
 40 H          -4.626609   -2.099168    1.352046 H         1 UNL        0.1785 ****
 41 C          -2.853965    1.881913    1.115761 C         1 UNL       -0.1547 ****
 42 H          -2.289200    2.720835    0.698192 H         1 UNL        0.0192 ****
 43 H          -3.765815    2.295222    1.553925 H         1 UNL        0.0192 ****
 44 H          -2.270841    1.449763    1.934490 H         1 UNL        0.0192 ****
 45 C          -5.600037    0.312168    0.812928 C         1 UNL       -0.1218 ****
 46 H          -6.244759   -0.510831    1.136494 H         1 UNL        0.0442 ****
 47 H          -5.624918    1.066221    1.615817 H         1 UNL        0.0442 ****
 48 C          -5.248306    2.059291   -0.957179 C         1 UNL       -0.1352 ****
 49 H          -5.223484    2.875767   -0.220435 H         1 UNL        0.0335 ****
 50 H          -5.650839    2.484991   -1.883311 H         1 UNL        0.0335 ****
 51 C           4.566038   -0.960861    0.311834 C         1 UNL       -0.0700 ****
 52 H           4.070915   -0.427175    1.129395 H         1 UNL       -0.0054 ****
 53 H           4.757380   -1.973776    0.689602 H         1 UNL       -0.0054 ****
 54 C          -6.182755    0.960455   -0.452111 C         1 UNL        0.4613 ****
 55 H          -6.287535    0.192992   -1.228937 H         1 UNL        0.0120 ****
 56 C           4.247535   -1.901844   -2.027203 C         1 UNL       -0.3123 ****
 57 H           4.411794   -2.935664   -1.697686 H         1 UNL        0.0634 ****
 58 H           5.213222   -1.500357   -2.348774 H         1 UNL        0.0634 ****
 59 H           3.597412   -1.933655   -2.908321 H         1 UNL        0.0634 ****
 60 C           5.940756   -0.308024    0.047775 C         1 UNL        0.1167 ****
 61 H           6.516774   -0.354357    0.980849 H         1 UNL       -0.0313 ****
 62 H           6.503746   -0.921300   -0.666258 H         1 UNL       -0.0313 ****
 63 C           5.933581    1.141433   -0.472913 C         1 UNL       -0.1092 ****
 64 H           5.417523    1.177112   -1.441911 H         1 UNL        0.0005 ****
 65 H           6.973326    1.435562   -0.680147 H         1 UNL        0.0005 ****
 66 C           5.310835    2.208896    0.451404 C         1 UNL        0.4198 ****
 67 H           4.271434    1.919382    0.661215 H         1 UNL       -0.0869 ****
 68 C           5.274632    3.571250   -0.259796 C         1 UNL       -0.2895 ****
 69 H           6.289928    3.916983   -0.493056 H         1 UNL        0.0537 ****
 70 H           4.799598    4.335539    0.365946 H         1 UNL        0.0537 ****
 71 H           4.718335    3.515733   -1.202676 H         1 UNL        0.0537 ****
 72 C           6.045489    2.323712    1.796641 C         1 UNL       -0.2910 ****
 73 H           7.099655    2.588773    1.642548 H         1 UNL        0.0548 ****
 74 H           5.595826    3.102905    2.422596 H         1 UNL        0.0548 ****
 75 H           6.016879    1.388478    2.364829 H         1 UNL        0.0548 ****
@<TRIPOS>BOND
    1     1     2 1
    2     1    27 1
    3     3     4 1
    4     3    54 1
    5     5     6 1
    6     5    12 1
    7     5    14 1
    8     5    31 1
    9     6     7 1
   10     6     8 1
   11     6    18 1
   12     8     9 1
   13     8    10 1
   14     8    27 1
   15    10    11 1
   16    10    17 1
   17    10    21 1
   18    12    13 1
   19    12    24 1
   20    12    29 1
   21    14    15 1
   22    14    16 1
   23    14    21 1
   24    17    35 1
   25    17    36 1
   26    17    41 1
   27    18    19 1
   28    18    20 1
   29    18    24 1
   30    21    22 1
   31    21    23 1
   32    24    25 1
   33    24    26 1
   34    27    28 1
   35    27    39 1
   36    29    30 1
   37    29    51 1
   38    29    56 1
   39    31    32 1
   40    31    33 1
   41    31    34 1
   42    35    39 1
   43    35    45 1
   44    36    37 1
   45    36    38 1
   46    36    48 1
   47    39    40 1
   48    41    42 1
   49    41    43 1
   50    41    44 1
   51    45    46 1
   52    45    47 1
   53    45    54 1
   54    48    49 1
   55    48    50 1
   56    48    54 1
   57    51    52 1
   58    51    53 1
   59    51    60 1
   60    54    55 1
   61    56    57 1
   62    56    58 1
   63    56    59 1
   64    60    61 1
   65    60    62 1
   66    60    63 1
   67    63    64 1
   68    63    65 1
   69    63    66 1
   70    66    67 1
   71    66    68 1
   72    66    72 1
   73    68    69 1
   74    68    70 1
   75    68    71 1
   76    72    73 1
   77    72    74 1
   78    72    75 1
@<TRIPOS>SUBSTRUCTURE
      1  UNL              1 ****               0 ****  ****  


