@<TRIPOS>MOLECULE
UNL
   75    78     1     0     1
SMALL
USER_CHARGES
@<TRIPOS>ATOM
  1 O          -1.490174    2.588646   -0.981127 O         1 UNL       -0.7276 ****
  2 H          -1.914984    2.778649   -0.134010 H         1 UNL        0.4037 ****
  3 O          -7.653224    1.115844    1.239335 O         1 UNL       -0.7383 ****
  4 H          -8.083525    0.322508    0.890588 H         1 UNL        0.4092 ****
  5 C           0.720951   -1.121655   -0.460496 C         1 UNL        0.4346 ****
  6 C           0.020949    0.164546   -0.980558 C         1 UNL        0.2014 ****
  7 H           0.255922    0.944216   -0.242086 H         1 UNL       -0.0588 ****
  8 C          -1.509772    0.092521   -1.038699 C         1 UNL       -0.0531 ****
  9 H          -1.806992   -0.674706   -1.768372 H         1 UNL       -0.0475 ****
 10 C          -2.088050   -0.275382    0.351493 C         1 UNL        0.0052 ****
 11 H          -1.890384    0.594721    0.999551 H         1 UNL       -0.0359 ****
 12 C           2.218957   -0.674168   -0.582626 C         1 UNL       -0.0764 ****
 13 H           2.377910    0.050892    0.229089 H         1 UNL       -0.0217 ****
 14 C           0.189280   -1.359102    0.967583 C         1 UNL       -0.1715 ****
 15 H           0.507182   -0.521285    1.604750 H         1 UNL        0.0087 ****
 16 H           0.609445   -2.266425    1.413520 H         1 UNL        0.0087 ****
 17 C          -3.647651   -0.445157    0.324422 C         1 UNL        0.3688 ****
 18 C           0.793172    0.538921   -2.254169 C         1 UNL       -0.1189 ****
 19 H           0.713580    1.606320   -2.478085 H         1 UNL        0.0133 ****
 20 H           0.402471   -0.003106   -3.125020 H         1 UNL        0.0133 ****
 21 C          -1.348878   -1.473241    0.993815 C         1 UNL       -0.0248 ****
 22 H          -1.634046   -2.400561    0.486350 H         1 UNL        0.0170 ****
 23 H          -1.671534   -1.589104    2.035002 H         1 UNL        0.0170 ****
 24 C           2.252020    0.104965   -1.939041 C         1 UNL       -0.0103 ****
 25 H           2.647425   -0.536478   -2.735631 H         1 UNL        0.0034 ****
 26 H           2.922947    0.967570   -1.878173 H         1 UNL        0.0034 ****
 27 C          -2.121096    1.415296   -1.546717 C         1 UNL        0.5223 ****
 28 H          -1.911466    1.505592   -2.618755 H         1 UNL       -0.0026 ****
 29 C           3.343464   -1.734462   -0.480949 C         1 UNL        0.2783 ****
 30 H           3.188933   -2.454958   -1.297528 H         1 UNL       -0.0654 ****
 31 C           0.453535   -2.353240   -1.355348 C         1 UNL       -0.4761 ****
 32 H          -0.613064   -2.565933   -1.464566 H         1 UNL        0.0922 ****
 33 H           0.860013   -2.222423   -2.362804 H         1 UNL        0.0922 ****
 34 H           0.918478   -3.249345   -0.930195 H         1 UNL        0.0922 ****
 35 C          -4.294627    0.680014   -0.494074 C         1 UNL       -0.0692 ****
 36 C          -4.184794   -0.357797    1.786648 C         1 UNL       -0.1164 ****
 37 H          -3.730647    0.519617    2.267851 H         1 UNL        0.0157 ****
 38 H          -3.842350   -1.231659    2.351163 H         1 UNL        0.0157 ****
 39 C          -3.603359    1.482363   -1.320355 C         1 UNL       -0.4758 ****
 40 H          -4.127322    2.275791   -1.852558 H         1 UNL        0.1785 ****
 41 C          -4.064191   -1.804263   -0.301171 C         1 UNL       -0.1547 ****
 42 H          -3.785686   -2.641724    0.345447 H         1 UNL        0.0192 ****
 43 H          -5.144571   -1.862410   -0.454930 H         1 UNL        0.0192 ****
 44 H          -3.591783   -1.952603   -1.276873 H         1 UNL        0.0192 ****
 45 C          -5.794412    0.859175   -0.346099 C         1 UNL       -0.1218 ****
 46 H          -6.125055    1.748083   -0.892200 H         1 UNL        0.0442 ****
 47 H          -6.318387    0.000361   -0.795193 H         1 UNL        0.0442 ****
 48 C          -5.711483   -0.239911    1.911729 C         1 UNL       -0.1352 ****
 49 H          -6.199544   -1.154373    1.543497 H         1 UNL        0.0335 ****
 50 H          -5.994519   -0.136169    2.965344 H         1 UNL        0.0335 ****
 51 C           4.749309   -1.124567   -0.729001 C         1 UNL       -0.0700 ****
 52 H           5.473197   -1.952225   -0.733126 H         1 UNL       -0.0054 ****
 53 H           4.785999   -0.693550   -1.737305 H         1 UNL       -0.0054 ****
 54 C          -6.236962    0.958487    1.121816 C         1 UNL        0.4613 ****
 55 H          -5.828827    1.880309    1.554380 H         1 UNL        0.0120 ****
 56 C           3.329797   -2.530424    0.837725 C         1 UNL       -0.3123 ****
 57 H           3.310197   -1.871891    1.713318 H         1 UNL        0.0634 ****
 58 H           4.225394   -3.158359    0.915207 H         1 UNL        0.0634 ****
 59 H           2.463153   -3.192839    0.906367 H         1 UNL        0.0634 ****
 60 C           5.228499   -0.064266    0.276808 C         1 UNL        0.1167 ****
 61 H           4.537825    0.787741    0.271668 H         1 UNL       -0.0313 ****
 62 H           5.200959   -0.479562    1.291464 H         1 UNL       -0.0313 ****
 63 C           6.651100    0.425383   -0.040801 C         1 UNL       -0.1092 ****
 64 H           6.666124    0.818553   -1.067744 H         1 UNL        0.0005 ****
 65 H           7.328615   -0.440893   -0.039521 H         1 UNL        0.0005 ****
 66 C           7.239589    1.502947    0.899595 C         1 UNL        0.4198 ****
 67 H           8.248870    1.717093    0.517681 H         1 UNL       -0.0869 ****
 68 C           7.401178    1.004102    2.345213 C         1 UNL       -0.2895 ****
 69 H           6.430549    0.827466    2.822904 H         1 UNL        0.0537 ****
 70 H           7.935267    1.741953    2.954816 H         1 UNL        0.0537 ****
 71 H           7.968188    0.066418    2.382986 H         1 UNL        0.0537 ****
 72 C           6.451921    2.822914    0.855780 C         1 UNL       -0.2910 ****
 73 H           5.447526    2.709348    1.279755 H         1 UNL        0.0548 ****
 74 H           6.963490    3.601442    1.433270 H         1 UNL        0.0548 ****
 75 H           6.341532    3.188036   -0.172098 H         1 UNL        0.0548 ****
@<TRIPOS>BOND
    1     1     2 1
    2     1    27 1
    3     3     4 1
    4     3    54 1
    5     5     6 1
    6     5    12 1
    7     5    14 1
    8     5    31 1
    9     6     7 1
   10     6     8 1
   11     6    18 1
   12     8     9 1
   13     8    10 1
   14     8    27 1
   15    10    11 1
   16    10    17 1
   17    10    21 1
   18    12    13 1
   19    12    24 1
   20    12    29 1
   21    14    15 1
   22    14    16 1
   23    14    21 1
   24    17    35 1
   25    17    36 1
   26    17    41 1
   27    18    19 1
   28    18    20 1
   29    18    24 1
   30    21    22 1
   31    21    23 1
   32    24    25 1
   33    24    26 1
   34    27    28 1
   35    27    39 1
   36    29    30 1
   37    29    51 1
   38    29    56 1
   39    31    32 1
   40    31    33 1
   41    31    34 1
   42    35    39 1
   43    35    45 1
   44    36    37 1
   45    36    38 1
   46    36    48 1
   47    39    40 1
   48    41    42 1
   49    41    43 1
   50    41    44 1
   51    45    46 1
   52    45    47 1
   53    45    54 1
   54    48    49 1
   55    48    50 1
   56    48    54 1
   57    51    52 1
   58    51    53 1
   59    51    60 1
   60    54    55 1
   61    56    57 1
   62    56    58 1
   63    56    59 1
   64    60    61 1
   65    60    62 1
   66    60    63 1
   67    63    64 1
   68    63    65 1
   69    63    66 1
   70    66    67 1
   71    66    68 1
   72    66    72 1
   73    68    69 1
   74    68    70 1
   75    68    71 1
   76    72    73 1
   77    72    74 1
   78    72    75 1
@<TRIPOS>SUBSTRUCTURE
      1  UNL              1 ****               0 ****  ****  


