@<TRIPOS>MOLECULE
UNL
   75    78     1     0     1
SMALL
USER_CHARGES
@<TRIPOS>ATOM
  1 O           1.563549   -0.158357    2.895481 O         1 UNL       -0.7276 ****
  2 H           1.883068    0.739760    2.735937 H         1 UNL        0.4037 ****
  3 O           7.249822    2.019014    0.063350 O         1 UNL       -0.7383 ****
  4 H           7.667065    1.457772   -0.605296 H         1 UNL        0.4092 ****
  5 C          -0.950336   -1.207349   -0.495862 C         1 UNL        0.4346 ****
  6 C          -0.096442   -1.179202    0.804845 C         1 UNL        0.2014 ****
  7 H          -0.372735   -0.248612    1.319653 H         1 UNL       -0.0588 ****
  8 C           1.418610   -1.095153    0.584885 C         1 UNL       -0.0531 ****
  9 H           1.764267   -2.012319    0.086833 H         1 UNL       -0.0475 ****
 10 C           1.773196    0.128876   -0.298626 C         1 UNL        0.0052 ****
 11 H           1.551617    1.017537    0.315671 H         1 UNL       -0.0359 ****
 12 C          -2.375015   -1.306299    0.153073 C         1 UNL       -0.0764 ****
 13 H          -2.516050   -0.333092    0.643248 H         1 UNL       -0.0217 ****
 14 C          -0.636625    0.094461   -1.258102 C         1 UNL       -0.1715 ****
 15 H          -0.970305    0.950106   -0.654648 H         1 UNL        0.0087 ****
 16 H          -1.184094    0.146143   -2.206744 H         1 UNL        0.0087 ****
 17 C           3.306208    0.203977   -0.624837 C         1 UNL        0.3688 ****
 18 C          -0.660612   -2.326203    1.660951 C         1 UNL       -0.1189 ****
 19 H          -0.481128   -2.161991    2.727155 H         1 UNL        0.0133 ****
 20 H          -0.188050   -3.281228    1.397712 H         1 UNL        0.0133 ****
 21 C           0.871195    0.232591   -1.552604 C         1 UNL       -0.0248 ****
 22 H           1.153740   -0.535928   -2.279196 H         1 UNL        0.0170 ****
 23 H           1.042962    1.194463   -2.049330 H         1 UNL        0.0170 ****
 24 C          -2.175802   -2.339757    1.307895 C         1 UNL       -0.0103 ****
 25 H          -2.494618   -3.341648    1.002770 H         1 UNL        0.0034 ****
 26 H          -2.797055   -2.069759    2.168820 H         1 UNL        0.0034 ****
 27 C           2.183076   -1.034453    1.924290 C         1 UNL        0.5223 ****
 28 H           2.128689   -2.020526    2.399797 H         1 UNL       -0.0026 ****
 29 C          -3.687795   -1.539712   -0.648667 C         1 UNL        0.2783 ****
 30 H          -4.458505   -1.607169    0.134228 H         1 UNL       -0.0654 ****
 31 C          -0.623327   -2.433874   -1.379046 C         1 UNL       -0.4761 ****
 32 H           0.449169   -2.529990   -1.567278 H         1 UNL        0.0922 ****
 33 H          -0.954110   -3.370775   -0.923638 H         1 UNL        0.0922 ****
 34 H          -1.112254   -2.351555   -2.354185 H         1 UNL        0.0922 ****
 35 C           4.135893   -0.091687    0.631765 C         1 UNL       -0.0692 ****
 36 C           3.644739    1.648969   -1.106157 C         1 UNL       -0.1164 ****
 37 H           3.191807    2.360843   -0.402056 H         1 UNL        0.0157 ****
 38 H           3.168922    1.828440   -2.076169 H         1 UNL        0.0157 ****
 39 C           3.621575   -0.646843    1.741582 C         1 UNL       -0.4758 ****
 40 H           4.267474   -0.806464    2.604515 H         1 UNL        0.1785 ****
 41 C           3.707150   -0.816475   -1.724865 C         1 UNL       -0.1547 ****
 42 H           3.282473   -0.542594   -2.695264 H         1 UNL        0.0192 ****
 43 H           4.791488   -0.866696   -1.851173 H         1 UNL        0.0192 ****
 44 H           3.365256   -1.824977   -1.473503 H         1 UNL        0.0192 ****
 45 C           5.610514    0.263429    0.578180 C         1 UNL       -0.1218 ****
 46 H           6.073747    0.104724    1.556918 H         1 UNL        0.0442 ****
 47 H           6.129137   -0.404527   -0.128002 H         1 UNL        0.0442 ****
 48 C           5.144759    1.963683   -1.211756 C         1 UNL       -0.1352 ****
 49 H           5.613209    1.347454   -1.993316 H         1 UNL        0.0335 ****
 50 H           5.288548    3.008759   -1.508604 H         1 UNL        0.0335 ****
 51 C          -4.095786   -0.366953   -1.574135 C         1 UNL       -0.0700 ****
 52 H          -3.351681   -0.269375   -2.374975 H         1 UNL       -0.0054 ****
 53 H          -5.031150   -0.654453   -2.076023 H         1 UNL       -0.0054 ****
 54 C           5.855212    1.708367    0.117244 C         1 UNL        0.4613 ****
 55 H           5.457496    2.395150    0.874602 H         1 UNL        0.0120 ****
 56 C          -3.794626   -2.856528   -1.444479 C         1 UNL       -0.3123 ****
 57 H          -3.224246   -2.822314   -2.377382 H         1 UNL        0.0634 ****
 58 H          -4.841509   -3.038547   -1.713069 H         1 UNL        0.0634 ****
 59 H          -3.450851   -3.724275   -0.874070 H         1 UNL        0.0634 ****
 60 C          -4.313533    1.015077   -0.928442 C         1 UNL        0.1167 ****
 61 H          -3.387603    1.366436   -0.455342 H         1 UNL       -0.0313 ****
 62 H          -4.521414    1.724918   -1.738728 H         1 UNL       -0.0313 ****
 63 C          -5.454280    1.066418    0.099501 C         1 UNL       -0.1092 ****
 64 H          -5.242269    0.358166    0.911045 H         1 UNL        0.0005 ****
 65 H          -6.385576    0.716732   -0.372983 H         1 UNL        0.0005 ****
 66 C          -5.706725    2.452183    0.730232 C         1 UNL        0.4198 ****
 67 H          -4.749365    2.809482    1.140476 H         1 UNL       -0.0869 ****
 68 C          -6.701763    2.339945    1.896431 C         1 UNL       -0.2895 ****
 69 H          -7.676930    1.979617    1.544214 H         1 UNL        0.0537 ****
 70 H          -6.861961    3.311123    2.378468 H         1 UNL        0.0537 ****
 71 H          -6.344893    1.640436    2.660989 H         1 UNL        0.0537 ****
 72 C          -6.197214    3.489256   -0.293358 C         1 UNL       -0.2910 ****
 73 H          -7.142970    3.167281   -0.748586 H         1 UNL        0.0548 ****
 74 H          -6.373906    4.458579    0.186582 H         1 UNL        0.0548 ****
 75 H          -5.475340    3.649178   -1.100351 H         1 UNL        0.0548 ****
@<TRIPOS>BOND
    1     1     2 1
    2     1    27 1
    3     3     4 1
    4     3    54 1
    5     5     6 1
    6     5    12 1
    7     5    14 1
    8     5    31 1
    9     6     7 1
   10     6     8 1
   11     6    18 1
   12     8     9 1
   13     8    10 1
   14     8    27 1
   15    10    11 1
   16    10    17 1
   17    10    21 1
   18    12    13 1
   19    12    24 1
   20    12    29 1
   21    14    15 1
   22    14    16 1
   23    14    21 1
   24    17    35 1
   25    17    36 1
   26    17    41 1
   27    18    19 1
   28    18    20 1
   29    18    24 1
   30    21    22 1
   31    21    23 1
   32    24    25 1
   33    24    26 1
   34    27    28 1
   35    27    39 1
   36    29    30 1
   37    29    51 1
   38    29    56 1
   39    31    32 1
   40    31    33 1
   41    31    34 1
   42    35    39 1
   43    35    45 1
   44    36    37 1
   45    36    38 1
   46    36    48 1
   47    39    40 1
   48    41    42 1
   49    41    43 1
   50    41    44 1
   51    45    46 1
   52    45    47 1
   53    45    54 1
   54    48    49 1
   55    48    50 1
   56    48    54 1
   57    51    52 1
   58    51    53 1
   59    51    60 1
   60    54    55 1
   61    56    57 1
   62    56    58 1
   63    56    59 1
   64    60    61 1
   65    60    62 1
   66    60    63 1
   67    63    64 1
   68    63    65 1
   69    63    66 1
   70    66    67 1
   71    66    68 1
   72    66    72 1
   73    68    69 1
   74    68    70 1
   75    68    71 1
   76    72    73 1
   77    72    74 1
   78    72    75 1
@<TRIPOS>SUBSTRUCTURE
      1  UNL              1 ****               0 ****  ****  


