@<TRIPOS>MOLECULE
UNL
   75    78     1     0     1
SMALL
USER_CHARGES
@<TRIPOS>ATOM
  1 O           1.949203    2.705420   -0.999277 O         1 UNL       -0.7276 ****
  2 H           2.453117    2.311649   -1.723993 H         1 UNL        0.4037 ****
  3 O           8.055233   -0.091952   -1.050549 O         1 UNL       -0.7383 ****
  4 H           8.366515   -0.515084   -0.238002 H         1 UNL        0.4092 ****
  5 C          -0.622724   -0.432410    0.573065 C         1 UNL        0.4346 ****
  6 C           0.179264    0.867754    0.285707 C         1 UNL        0.2014 ****
  7 H           0.087163    1.035548   -0.796861 H         1 UNL       -0.0588 ****
  8 C           1.683894    0.780995    0.569602 C         1 UNL       -0.0531 ****
  9 H           1.838370    0.617829    1.646152 H         1 UNL       -0.0475 ****
 10 C           2.318803   -0.392112   -0.218915 C         1 UNL        0.0052 ****
 11 H           2.269582   -0.102696   -1.281912 H         1 UNL       -0.0359 ****
 12 C          -2.067544    0.056912    0.205211 C         1 UNL       -0.0764 ****
 13 H          -2.097217    0.114622   -0.894504 H         1 UNL       -0.0217 ****
 14 C          -0.014356   -1.524160   -0.331489 C         1 UNL       -0.1715 ****
 15 H          -0.186513   -1.245757   -1.381162 H         1 UNL        0.0087 ****
 16 H          -0.498499   -2.494621   -0.184105 H         1 UNL        0.0087 ****
 17 C           3.842677   -0.575528    0.106220 C         1 UNL        0.3688 ****
 18 C          -0.635476    1.980167    0.959070 C         1 UNL       -0.1189 ****
 19 H          -0.441737    2.957443    0.508308 H         1 UNL        0.0133 ****
 20 H          -0.385011    2.060668    2.024669 H         1 UNL        0.0133 ****
 21 C           1.498381   -1.696521   -0.084216 C         1 UNL       -0.0248 ****
 22 H           1.638078   -2.121029    0.915346 H         1 UNL        0.0170 ****
 23 H           1.881822   -2.446700   -0.785507 H         1 UNL        0.0170 ****
 24 C          -2.106545    1.520454    0.765758 C         1 UNL       -0.0103 ****
 25 H          -2.654304    1.549815    1.715493 H         1 UNL        0.0034 ****
 26 H          -2.640261    2.186469    0.081490 H         1 UNL        0.0034 ****
 27 C           2.400924    2.106997    0.238637 C         1 UNL        0.5223 ****
 28 H           2.124718    2.849779    0.995841 H         1 UNL       -0.0026 ****
 29 C          -3.298853   -0.779580    0.640944 C         1 UNL        0.2783 ****
 30 H          -3.323052   -0.794831    1.741531 H         1 UNL       -0.0654 ****
 31 C          -0.563539   -0.853475    2.059341 C         1 UNL       -0.4761 ****
 32 H           0.461218   -0.995056    2.412366 H         1 UNL        0.0922 ****
 33 H          -1.028891   -0.109335    2.712771 H         1 UNL        0.0922 ****
 34 H          -1.092069   -1.799657    2.216477 H         1 UNL        0.0922 ****
 35 C           4.550051    0.785692    0.140766 C         1 UNL       -0.0692 ****
 36 C           4.493138   -1.437497   -1.019800 C         1 UNL       -0.1164 ****
 37 H           4.177980   -1.029849   -1.990459 H         1 UNL        0.0157 ****
 38 H           4.097022   -2.457386   -0.969661 H         1 UNL        0.0157 ****
 39 C           3.894035    1.955898    0.209023 C         1 UNL       -0.4758 ****
 40 H           4.462920    2.885250    0.207377 H         1 UNL        0.1785 ****
 41 C           4.055330   -1.269516    1.479309 C         1 UNL       -0.1547 ****
 42 H           3.733058   -2.314722    1.451107 H         1 UNL        0.0192 ****
 43 H           5.107809   -1.265480    1.773426 H         1 UNL        0.0192 ****
 44 H           3.498018   -0.760225    2.271288 H         1 UNL        0.0192 ****
 45 C           6.067308    0.770128    0.106686 C         1 UNL       -0.1218 ****
 46 H           6.454646    1.790927    0.031477 H         1 UNL        0.0442 ****
 47 H           6.456846    0.353937    1.049503 H         1 UNL        0.0442 ****
 48 C           6.028356   -1.488052   -0.993995 C         1 UNL       -0.1352 ****
 49 H           6.381560   -1.996223   -0.084555 H         1 UNL        0.0335 ****
 50 H           6.398650   -2.072858   -1.843619 H         1 UNL        0.0335 ****
 51 C          -4.604645   -0.093104    0.167689 C         1 UNL       -0.0700 ****
 52 H          -4.581066    0.964038    0.457079 H         1 UNL       -0.0054 ****
 53 H          -4.624833   -0.106697   -0.931787 H         1 UNL       -0.0054 ****
 54 C           6.625486   -0.081900   -1.043472 C         1 UNL        0.4613 ****
 55 H           6.356758    0.388755   -1.997257 H         1 UNL        0.0120 ****
 56 C          -3.250884   -2.236650    0.148275 C         1 UNL       -0.3123 ****
 57 H          -3.151936   -2.278259   -0.943942 H         1 UNL        0.0634 ****
 58 H          -4.163000   -2.776503    0.419367 H         1 UNL        0.0634 ****
 59 H          -2.414248   -2.790623    0.579528 H         1 UNL        0.0634 ****
 60 C          -5.903367   -0.700624    0.725253 C         1 UNL        0.1167 ****
 61 H          -6.060560   -1.708822    0.325014 H         1 UNL       -0.0313 ****
 62 H          -5.794645   -0.823223    1.812374 H         1 UNL       -0.0313 ****
 63 C          -7.158042    0.154578    0.468090 C         1 UNL       -0.1092 ****
 64 H          -7.016662    1.134600    0.946421 H         1 UNL        0.0005 ****
 65 H          -8.012914   -0.312105    0.979845 H         1 UNL        0.0005 ****
 66 C          -7.548107    0.386000   -1.007392 C         1 UNL        0.4198 ****
 67 H          -6.700503    0.867907   -1.515389 H         1 UNL       -0.0869 ****
 68 C          -8.744201    1.347441   -1.095254 C         1 UNL       -0.2895 ****
 69 H          -9.628126    0.917807   -0.606344 H         1 UNL        0.0537 ****
 70 H          -9.010697    1.557624   -2.137399 H         1 UNL        0.0537 ****
 71 H          -8.525243    2.303358   -0.605650 H         1 UNL        0.0537 ****
 72 C          -7.856331   -0.926254   -1.745728 C         1 UNL       -0.2910 ****
 73 H          -8.684104   -1.460448   -1.261179 H         1 UNL        0.0548 ****
 74 H          -8.149857   -0.731463   -2.783551 H         1 UNL        0.0548 ****
 75 H          -6.993581   -1.599922   -1.769118 H         1 UNL        0.0548 ****
@<TRIPOS>BOND
    1     1     2 1
    2     1    27 1
    3     3     4 1
    4     3    54 1
    5     5     6 1
    6     5    12 1
    7     5    14 1
    8     5    31 1
    9     6     7 1
   10     6     8 1
   11     6    18 1
   12     8     9 1
   13     8    10 1
   14     8    27 1
   15    10    11 1
   16    10    17 1
   17    10    21 1
   18    12    13 1
   19    12    24 1
   20    12    29 1
   21    14    15 1
   22    14    16 1
   23    14    21 1
   24    17    35 1
   25    17    36 1
   26    17    41 1
   27    18    19 1
   28    18    20 1
   29    18    24 1
   30    21    22 1
   31    21    23 1
   32    24    25 1
   33    24    26 1
   34    27    28 1
   35    27    39 1
   36    29    30 1
   37    29    51 1
   38    29    56 1
   39    31    32 1
   40    31    33 1
   41    31    34 1
   42    35    39 1
   43    35    45 1
   44    36    37 1
   45    36    38 1
   46    36    48 1
   47    39    40 1
   48    41    42 1
   49    41    43 1
   50    41    44 1
   51    45    46 1
   52    45    47 1
   53    45    54 1
   54    48    49 1
   55    48    50 1
   56    48    54 1
   57    51    52 1
   58    51    53 1
   59    51    60 1
   60    54    55 1
   61    56    57 1
   62    56    58 1
   63    56    59 1
   64    60    61 1
   65    60    62 1
   66    60    63 1
   67    63    64 1
   68    63    65 1
   69    63    66 1
   70    66    67 1
   71    66    68 1
   72    66    72 1
   73    68    69 1
   74    68    70 1
   75    68    71 1
   76    72    73 1
   77    72    74 1
   78    72    75 1
@<TRIPOS>SUBSTRUCTURE
      1  UNL              1 ****               0 ****  ****  


