@<TRIPOS>MOLECULE
UNL
   75    78     1     0     1
SMALL
USER_CHARGES
@<TRIPOS>ATOM
  1 O          -2.436404   -2.989576   -0.200957 O         1 UNL       -0.7276 ****
  2 H          -3.090682   -2.752406   -0.871667 H         1 UNL        0.4037 ****
  3 O          -8.002039    0.745820    0.256832 O         1 UNL       -0.7383 ****
  4 H          -8.022948    1.446565    0.923686 H         1 UNL        0.4092 ****
  5 C           0.745290   -0.044337   -0.473996 C         1 UNL        0.4346 ****
  6 C          -0.206011   -1.207449   -0.095433 C         1 UNL        0.2014 ****
  7 H          -0.451013   -1.708534   -1.042276 H         1 UNL       -0.0588 ****
  8 C          -1.548209   -0.762869    0.496069 C         1 UNL       -0.0531 ****
  9 H          -1.371049   -0.251468    1.453227 H         1 UNL       -0.0475 ****
 10 C          -2.269389    0.207754   -0.477825 C         1 UNL        0.0052 ****
 11 H          -2.561277   -0.404953   -1.346965 H         1 UNL       -0.0359 ****
 12 C           1.960839   -0.870141   -1.000228 C         1 UNL       -0.0764 ****
 13 H           1.591894   -1.321621   -1.932513 H         1 UNL       -0.0217 ****
 14 C           0.026376    0.803360   -1.537643 C         1 UNL       -0.1715 ****
 15 H          -0.127826    0.186705   -2.434792 H         1 UNL        0.0087 ****
 16 H           0.638216    1.661205   -1.847804 H         1 UNL        0.0087 ****
 17 C          -3.608181    0.764070    0.122932 C         1 UNL        0.3688 ****
 18 C           0.683287   -2.190912    0.687790 C         1 UNL       -0.1189 ****
 19 H           0.304481   -3.214722    0.623976 H         1 UNL        0.0133 ****
 20 H           0.719837   -1.927899    1.752786 H         1 UNL        0.0133 ****
 21 C          -1.335312    1.317537   -1.025727 C         1 UNL       -0.0248 ****
 22 H          -1.153739    2.067516   -0.249592 H         1 UNL        0.0170 ****
 23 H          -1.839106    1.847251   -1.842279 H         1 UNL        0.0170 ****
 24 C           2.091238   -2.034357    0.031663 C         1 UNL       -0.0103 ****
 25 H           2.843958   -1.810220    0.792710 H         1 UNL        0.0034 ****
 26 H           2.412847   -2.959129   -0.458330 H         1 UNL        0.0034 ****
 27 C          -2.453744   -1.968373    0.824397 C         1 UNL        0.5223 ****
 28 H          -2.042529   -2.481533    1.701432 H         1 UNL       -0.0026 ****
 29 C           3.262457   -0.114198   -1.397446 C         1 UNL        0.2783 ****
 30 H           2.952782    0.880322   -1.754317 H         1 UNL       -0.0654 ****
 31 C           1.131017    0.833621    0.736898 C         1 UNL       -0.4761 ****
 32 H           0.259944    1.303661    1.200505 H         1 UNL        0.0922 ****
 33 H           1.637446    0.259854    1.518108 H         1 UNL        0.0922 ****
 34 H           1.804518    1.640365    0.427441 H         1 UNL        0.0922 ****
 35 C          -4.402586   -0.364255    0.794587 C         1 UNL       -0.0692 ****
 36 C          -4.471901    1.348808   -1.037379 C         1 UNL       -0.1164 ****
 37 H          -4.491542    0.614819   -1.855077 H         1 UNL        0.0157 ****
 38 H          -3.983297    2.243760   -1.437025 H         1 UNL        0.0157 ****
 39 C          -3.870375   -1.558338    1.103439 C         1 UNL       -0.4758 ****
 40 H          -4.502003   -2.319879    1.559945 H         1 UNL        0.1785 ****
 41 C          -3.344644    1.869672    1.181633 C         1 UNL       -0.1547 ****
 42 H          -2.947270    2.777832    0.718615 H         1 UNL        0.0192 ****
 43 H          -4.261219    2.151300    1.705881 H         1 UNL        0.0192 ****
 44 H          -2.631784    1.531000    1.939447 H         1 UNL        0.0192 ****
 45 C          -5.856097   -0.076947    1.123972 C         1 UNL       -0.1218 ****
 46 H          -6.344356   -0.980989    1.500817 H         1 UNL        0.0442 ****
 47 H          -5.914361    0.671847    1.930081 H         1 UNL        0.0442 ****
 48 C          -5.921726    1.689584   -0.660468 C         1 UNL       -0.1352 ****
 49 H          -5.946048    2.506564    0.075773 H         1 UNL        0.0335 ****
 50 H          -6.464360    2.046804   -1.543031 H         1 UNL        0.0335 ****
 51 C           4.283479    0.108514   -0.255808 C         1 UNL       -0.0700 ****
 52 H           3.764106    0.351645    0.677247 H         1 UNL       -0.0054 ****
 53 H           4.815330   -0.833614   -0.068602 H         1 UNL       -0.0054 ****
 54 C          -6.639230    0.472303   -0.078196 C         1 UNL        0.4613 ****
 55 H          -6.704291   -0.307861   -0.846655 H         1 UNL        0.0120 ****
 56 C           3.937051   -0.828444   -2.586830 C         1 UNL       -0.3123 ****
 57 H           4.217182   -1.854307   -2.316570 H         1 UNL        0.0634 ****
 58 H           4.845431   -0.312234   -2.913491 H         1 UNL        0.0634 ****
 59 H           3.262631   -0.884393   -3.448480 H         1 UNL        0.0634 ****
 60 C           5.297428    1.230783   -0.537699 C         1 UNL        0.1167 ****
 61 H           5.884107    0.997718   -1.434375 H         1 UNL       -0.0313 ****
 62 H           4.742338    2.149058   -0.776568 H         1 UNL       -0.0313 ****
 63 C           6.245363    1.541848    0.635083 C         1 UNL       -0.1092 ****
 64 H           5.639897    1.833246    1.505676 H         1 UNL        0.0005 ****
 65 H           6.846564    2.425896    0.375199 H         1 UNL        0.0005 ****
 66 C           7.209865    0.416997    1.068285 C         1 UNL        0.4198 ****
 67 H           6.611499   -0.462346    1.346503 H         1 UNL       -0.0869 ****
 68 C           8.000475    0.847978    2.314140 C         1 UNL       -0.2895 ****
 69 H           8.625430    1.723891    2.097004 H         1 UNL        0.0537 ****
 70 H           8.661916    0.046777    2.663117 H         1 UNL        0.0537 ****
 71 H           7.330927    1.113985    3.140241 H         1 UNL        0.0537 ****
 72 C           8.167209   -0.001711   -0.058810 C         1 UNL       -0.2910 ****
 73 H           8.772661    0.851322   -0.392179 H         1 UNL        0.0548 ****
 74 H           8.855263   -0.783382    0.282771 H         1 UNL        0.0548 ****
 75 H           7.633231   -0.392371   -0.931003 H         1 UNL        0.0548 ****
@<TRIPOS>BOND
    1     1     2 1
    2     1    27 1
    3     3     4 1
    4     3    54 1
    5     5     6 1
    6     5    12 1
    7     5    14 1
    8     5    31 1
    9     6     7 1
   10     6     8 1
   11     6    18 1
   12     8     9 1
   13     8    10 1
   14     8    27 1
   15    10    11 1
   16    10    17 1
   17    10    21 1
   18    12    13 1
   19    12    24 1
   20    12    29 1
   21    14    15 1
   22    14    16 1
   23    14    21 1
   24    17    35 1
   25    17    36 1
   26    17    41 1
   27    18    19 1
   28    18    20 1
   29    18    24 1
   30    21    22 1
   31    21    23 1
   32    24    25 1
   33    24    26 1
   34    27    28 1
   35    27    39 1
   36    29    30 1
   37    29    51 1
   38    29    56 1
   39    31    32 1
   40    31    33 1
   41    31    34 1
   42    35    39 1
   43    35    45 1
   44    36    37 1
   45    36    38 1
   46    36    48 1
   47    39    40 1
   48    41    42 1
   49    41    43 1
   50    41    44 1
   51    45    46 1
   52    45    47 1
   53    45    54 1
   54    48    49 1
   55    48    50 1
   56    48    54 1
   57    51    52 1
   58    51    53 1
   59    51    60 1
   60    54    55 1
   61    56    57 1
   62    56    58 1
   63    56    59 1
   64    60    61 1
   65    60    62 1
   66    60    63 1
   67    63    64 1
   68    63    65 1
   69    63    66 1
   70    66    67 1
   71    66    68 1
   72    66    72 1
   73    68    69 1
   74    68    70 1
   75    68    71 1
   76    72    73 1
   77    72    74 1
   78    72    75 1
@<TRIPOS>SUBSTRUCTURE
      1  UNL              1 ****               0 ****  ****  


