@<TRIPOS>MOLECULE
UNL
   75    78     1     0     1
SMALL
USER_CHARGES
@<TRIPOS>ATOM
  1 O           1.794661    1.557776   -2.478973 O         1 UNL       -0.7276 ****
  2 H           2.167219    0.716285   -2.774414 H         1 UNL        0.4037 ****
  3 O           7.509905   -1.523964   -0.768397 O         1 UNL       -0.7383 ****
  4 H           7.862210   -1.365942    0.118777 H         1 UNL        0.4092 ****
  5 C          -0.909877    0.625386    0.797515 C         1 UNL        0.4346 ****
  6 C          -0.008422    1.300580   -0.276159 C         1 UNL        0.2014 ****
  7 H          -0.199972    0.753323   -1.209505 H         1 UNL       -0.0588 ****
  8 C           1.499721    1.178523   -0.027998 C         1 UNL       -0.0531 ****
  9 H           1.762084    1.727159    0.887922 H         1 UNL       -0.0475 ****
 10 C           1.905740   -0.309245    0.135109 C         1 UNL        0.0052 ****
 11 H           1.768559   -0.768996   -0.857839 H         1 UNL       -0.0359 ****
 12 C          -2.312631    0.982809    0.193137 C         1 UNL       -0.0764 ****
 13 H          -2.365566    0.393067   -0.732302 H         1 UNL       -0.0217 ****
 14 C          -0.534050   -0.868674    0.814329 C         1 UNL       -0.1715 ****
 15 H          -0.783555   -1.310297   -0.160535 H         1 UNL        0.0087 ****
 16 H          -1.111699   -1.419336    1.566291 H         1 UNL        0.0087 ****
 17 C           3.427257   -0.477318    0.479613 C         1 UNL        0.3688 ****
 18 C          -0.619076    2.699764   -0.467079 C         1 UNL       -0.1189 ****
 19 H          -0.389813    3.110280   -1.454437 H         1 UNL        0.0133 ****
 20 H          -0.223683    3.404992    0.275204 H         1 UNL        0.0133 ****
 21 C           0.967695   -1.074375    1.100208 C         1 UNL       -0.0248 ****
 22 H           1.168275   -0.771586    2.132957 H         1 UNL        0.0170 ****
 23 H           1.188161   -2.147019    1.052483 H         1 UNL        0.0170 ****
 24 C          -2.143463    2.469048   -0.257874 C         1 UNL       -0.0103 ****
 25 H          -2.541376    3.158924    0.493376 H         1 UNL        0.0034 ****
 26 H          -2.713062    2.653489   -1.175252 H         1 UNL        0.0034 ****
 27 C           2.315354    1.840666   -1.158658 C         1 UNL        0.5223 ****
 28 H           2.209881    2.928161   -1.071295 H         1 UNL       -0.0026 ****
 29 C          -3.667917    0.717851    0.909916 C         1 UNL        0.2783 ****
 30 H          -4.410694    1.149032    0.221010 H         1 UNL       -0.0654 ****
 31 C          -0.703089    1.242089    2.200709 C         1 UNL       -0.4761 ****
 32 H           0.352430    1.275776    2.482944 H         1 UNL        0.0922 ****
 33 H          -1.084056    2.264636    2.262924 H         1 UNL        0.0922 ****
 34 H          -1.218717    0.652004    2.964030 H         1 UNL        0.0922 ****
 35 C           4.280056    0.451828   -0.394481 C         1 UNL       -0.0692 ****
 36 C           3.847099   -1.950324    0.182232 C         1 UNL       -0.1164 ****
 37 H           3.470673   -2.220618   -0.814210 H         1 UNL        0.0157 ****
 38 H           3.349518   -2.619181    0.892561 H         1 UNL        0.0157 ****
 39 C           3.769669    1.473702   -1.101348 C         1 UNL       -0.4758 ****
 40 H           4.434238    2.077452   -1.718710 H         1 UNL        0.1785 ****
 41 C           3.715576   -0.146115    1.969306 C         1 UNL       -0.1547 ****
 42 H           3.277906   -0.895803    2.635239 H         1 UNL        0.0192 ****
 43 H           4.788387   -0.119830    2.175629 H         1 UNL        0.0192 ****
 44 H           3.311258    0.833068    2.242924 H         1 UNL        0.0192 ****
 45 C           5.772785    0.179558   -0.429597 C         1 UNL       -0.1218 ****
 46 H           6.259784    0.834619   -1.158593 H         1 UNL        0.0442 ****
 47 H           6.217343    0.413697    0.550890 H         1 UNL        0.0442 ****
 48 C           5.360394   -2.213696    0.213553 C         1 UNL       -0.1352 ****
 49 H           5.756003   -2.064835    1.229096 H         1 UNL        0.0335 ****
 50 H           5.564869   -3.256952   -0.052504 H         1 UNL        0.0335 ****
 51 C          -4.031203   -0.778678    1.070364 C         1 UNL       -0.0700 ****
 52 H          -3.308003   -1.253821    1.745473 H         1 UNL       -0.0054 ****
 53 H          -4.993365   -0.827927    1.598152 H         1 UNL       -0.0054 ****
 54 C           6.100035   -1.286740   -0.750707 C         1 UNL        0.4613 ****
 55 H           5.779224   -1.505968   -1.776593 H         1 UNL        0.0120 ****
 56 C          -3.894870    1.430693    2.258598 C         1 UNL       -0.3123 ****
 57 H          -3.359631    0.942394    3.078308 H         1 UNL        0.0634 ****
 58 H          -4.961195    1.407628    2.511026 H         1 UNL        0.0634 ****
 59 H          -3.589423    2.480850    2.238420 H         1 UNL        0.0634 ****
 60 C          -4.131384   -1.626186   -0.213101 C         1 UNL        0.1167 ****
 61 H          -3.148490   -1.688166   -0.695002 H         1 UNL       -0.0313 ****
 62 H          -4.373830   -2.655439    0.081354 H         1 UNL       -0.0313 ****
 63 C          -5.148783   -1.143866   -1.265111 C         1 UNL       -0.1092 ****
 64 H          -5.101373   -1.826354   -2.126664 H         1 UNL        0.0005 ****
 65 H          -4.837387   -0.162518   -1.647677 H         1 UNL        0.0005 ****
 66 C          -6.620272   -1.043708   -0.810550 C         1 UNL        0.4198 ****
 67 H          -6.671629   -0.349466    0.040735 H         1 UNL       -0.0869 ****
 68 C          -7.185920   -2.396258   -0.348815 C         1 UNL       -0.2895 ****
 69 H          -7.135081   -3.135825   -1.158619 H         1 UNL        0.0537 ****
 70 H          -8.236844   -2.300400   -0.053013 H         1 UNL        0.0537 ****
 71 H          -6.638806   -2.802588    0.507988 H         1 UNL        0.0537 ****
 72 C          -7.484743   -0.454358   -1.936778 C         1 UNL       -0.2910 ****
 73 H          -7.478815   -1.109361   -2.817538 H         1 UNL        0.0548 ****
 74 H          -8.526795   -0.335472   -1.618597 H         1 UNL        0.0548 ****
 75 H          -7.115775    0.528626   -2.251439 H         1 UNL        0.0548 ****
@<TRIPOS>BOND
    1     1     2 1
    2     1    27 1
    3     3     4 1
    4     3    54 1
    5     5     6 1
    6     5    12 1
    7     5    14 1
    8     5    31 1
    9     6     7 1
   10     6     8 1
   11     6    18 1
   12     8     9 1
   13     8    10 1
   14     8    27 1
   15    10    11 1
   16    10    17 1
   17    10    21 1
   18    12    13 1
   19    12    24 1
   20    12    29 1
   21    14    15 1
   22    14    16 1
   23    14    21 1
   24    17    35 1
   25    17    36 1
   26    17    41 1
   27    18    19 1
   28    18    20 1
   29    18    24 1
   30    21    22 1
   31    21    23 1
   32    24    25 1
   33    24    26 1
   34    27    28 1
   35    27    39 1
   36    29    30 1
   37    29    51 1
   38    29    56 1
   39    31    32 1
   40    31    33 1
   41    31    34 1
   42    35    39 1
   43    35    45 1
   44    36    37 1
   45    36    38 1
   46    36    48 1
   47    39    40 1
   48    41    42 1
   49    41    43 1
   50    41    44 1
   51    45    46 1
   52    45    47 1
   53    45    54 1
   54    48    49 1
   55    48    50 1
   56    48    54 1
   57    51    52 1
   58    51    53 1
   59    51    60 1
   60    54    55 1
   61    56    57 1
   62    56    58 1
   63    56    59 1
   64    60    61 1
   65    60    62 1
   66    60    63 1
   67    63    64 1
   68    63    65 1
   69    63    66 1
   70    66    67 1
   71    66    68 1
   72    66    72 1
   73    68    69 1
   74    68    70 1
   75    68    71 1
   76    72    73 1
   77    72    74 1
   78    72    75 1
@<TRIPOS>SUBSTRUCTURE
      1  UNL              1 ****               0 ****  ****  


