@<TRIPOS>MOLECULE
UNL
   75    78     1     0     1
SMALL
USER_CHARGES
@<TRIPOS>ATOM
  1 O           1.744080   -0.960986    2.815254 O         1 UNL       -0.7276 ****
  2 H           2.017129   -0.034659    2.854440 H         1 UNL        0.4037 ****
  3 O           7.036410    2.161334    0.112296 O         1 UNL       -0.7383 ****
  4 H           7.403055    1.805113   -0.709197 H         1 UNL        0.4092 ****
  5 C          -1.065105   -1.298980   -0.488283 C         1 UNL        0.4346 ****
  6 C          -0.084454   -1.538659    0.695952 C         1 UNL        0.2014 ****
  7 H          -0.337300   -0.777735    1.447214 H         1 UNL       -0.0588 ****
  8 C           1.397025   -1.317779    0.367858 C         1 UNL       -0.0531 ****
  9 H           1.720901   -2.065845   -0.369887 H         1 UNL       -0.0475 ****
 10 C           1.619092    0.101990   -0.215085 C         1 UNL        0.0052 ****
 11 H           1.430550    0.801461    0.616393 H         1 UNL       -0.0359 ****
 12 C          -2.411745   -1.629826    0.244216 C         1 UNL       -0.0764 ****
 13 H          -2.531883   -0.813882    0.969632 H         1 UNL       -0.0217 ****
 14 C          -0.872799    0.163843   -0.932277 C         1 UNL       -0.1715 ****
 15 H          -1.171521    0.828353   -0.109509 H         1 UNL        0.0087 ****
 16 H          -1.514538    0.411510   -1.786150 H         1 UNL        0.0087 ****
 17 C           3.107892    0.342164   -0.648640 C         1 UNL        0.3688 ****
 18 C          -0.521674   -2.888590    1.290255 C         1 UNL       -0.1189 ****
 19 H          -0.238703   -2.978581    2.342788 H         1 UNL        0.0133 ****
 20 H          -0.049409   -3.723459    0.756731 H         1 UNL        0.0133 ****
 21 C           0.592110    0.453202   -1.318871 C         1 UNL       -0.0248 ****
 22 H           0.824340   -0.101544   -2.233634 H         1 UNL        0.0170 ****
 23 H           0.681444    1.514233   -1.579040 H         1 UNL        0.0170 ****
 24 C          -2.064077   -2.899415    1.085836 C         1 UNL       -0.0103 ****
 25 H          -2.381758   -3.814104    0.575049 H         1 UNL        0.0034 ****
 26 H          -2.601563   -2.879173    2.040150 H         1 UNL        0.0034 ****
 27 C           2.290709   -1.539441    1.606471 C         1 UNL        0.5223 ****
 28 H           2.317445   -2.612721    1.827283 H         1 UNL       -0.0026 ****
 29 C          -3.791794   -1.731911   -0.467687 C         1 UNL        0.2783 ****
 30 H          -4.479702   -2.015397    0.345992 H         1 UNL       -0.0654 ****
 31 C          -0.791905   -2.255606   -1.672282 C         1 UNL       -0.4761 ****
 32 H           0.258604   -2.245335   -1.974517 H         1 UNL        0.0922 ****
 33 H          -1.046551   -3.291354   -1.433581 H         1 UNL        0.0922 ****
 34 H          -1.379082   -1.966236   -2.548861 H         1 UNL        0.0922 ****
 35 C           4.069880   -0.201249    0.416277 C         1 UNL       -0.0692 ****
 36 C           3.346635    1.877910   -0.786028 C         1 UNL       -0.1164 ****
 37 H           2.942540    2.370043    0.109627 H         1 UNL        0.0157 ****
 38 H           2.769862    2.259674   -1.635219 H         1 UNL        0.0157 ****
 39 C           3.689545   -1.037620    1.396188 C         1 UNL       -0.4758 ****
 40 H           4.424524   -1.364381    2.131276 H         1 UNL        0.1785 ****
 41 C           3.430014   -0.355808   -1.998111 C         1 UNL       -0.1547 ****
 42 H           2.900100    0.120305   -2.828483 H         1 UNL        0.0192 ****
 43 H           4.497046   -0.310784   -2.229765 H         1 UNL        0.0192 ****
 44 H           3.150175   -1.413302   -1.974273 H         1 UNL        0.0192 ****
 45 C           5.518550    0.241057    0.320307 C         1 UNL       -0.1218 ****
 46 H           6.083542   -0.123797    1.183658 H         1 UNL        0.0442 ****
 47 H           5.985676   -0.203687   -0.572888 H         1 UNL        0.0442 ****
 48 C           4.816700    2.295547   -0.943680 C         1 UNL       -0.1352 ****
 49 H           5.225058    1.916264   -1.892087 H         1 UNL        0.0335 ****
 50 H           4.893729    3.387986   -0.984031 H         1 UNL        0.0335 ****
 51 C          -4.330960   -0.395176   -1.030605 C         1 UNL       -0.0700 ****
 52 H          -3.667519   -0.033127   -1.827364 H         1 UNL       -0.0054 ****
 53 H          -5.290780   -0.610121   -1.522278 H         1 UNL       -0.0054 ****
 54 C           5.665819    1.766437    0.211790 C         1 UNL        0.4613 ****
 55 H           5.323126    2.224044    1.148056 H         1 UNL        0.0120 ****
 56 C          -3.940701   -2.826348   -1.544056 C         1 UNL       -0.3123 ****
 57 H          -3.471776   -2.539523   -2.489841 H         1 UNL        0.0634 ****
 58 H          -5.003674   -2.996595   -1.749699 H         1 UNL        0.0634 ****
 59 H          -3.512503   -3.784533   -1.235991 H         1 UNL        0.0634 ****
 60 C          -4.565542    0.727139   -0.007382 C         1 UNL        0.1167 ****
 61 H          -5.181804    0.333852    0.812606 H         1 UNL       -0.0313 ****
 62 H          -3.613483    1.032504    0.440589 H         1 UNL       -0.0313 ****
 63 C          -5.252358    1.950918   -0.635754 C         1 UNL       -0.1092 ****
 64 H          -6.204854    1.628895   -1.081006 H         1 UNL        0.0005 ****
 65 H          -4.634400    2.309366   -1.471938 H         1 UNL        0.0005 ****
 66 C          -5.535913    3.145475    0.304656 C         1 UNL        0.4198 ****
 67 H          -6.027699    3.908131   -0.317284 H         1 UNL       -0.0869 ****
 68 C          -4.251190    3.779768    0.863179 C         1 UNL       -0.2895 ****
 69 H          -3.730037    3.101536    1.548621 H         1 UNL        0.0537 ****
 70 H          -4.479267    4.695133    1.421169 H         1 UNL        0.0537 ****
 71 H          -3.554323    4.043930    0.058947 H         1 UNL        0.0537 ****
 72 C          -6.512606    2.788451    1.437507 C         1 UNL       -0.2910 ****
 73 H          -6.070593    2.074968    2.142461 H         1 UNL        0.0548 ****
 74 H          -6.790756    3.681682    2.008466 H         1 UNL        0.0548 ****
 75 H          -7.434193    2.343139    1.044466 H         1 UNL        0.0548 ****
@<TRIPOS>BOND
    1     1     2 1
    2     1    27 1
    3     3     4 1
    4     3    54 1
    5     5     6 1
    6     5    12 1
    7     5    14 1
    8     5    31 1
    9     6     7 1
   10     6     8 1
   11     6    18 1
   12     8     9 1
   13     8    10 1
   14     8    27 1
   15    10    11 1
   16    10    17 1
   17    10    21 1
   18    12    13 1
   19    12    24 1
   20    12    29 1
   21    14    15 1
   22    14    16 1
   23    14    21 1
   24    17    35 1
   25    17    36 1
   26    17    41 1
   27    18    19 1
   28    18    20 1
   29    18    24 1
   30    21    22 1
   31    21    23 1
   32    24    25 1
   33    24    26 1
   34    27    28 1
   35    27    39 1
   36    29    30 1
   37    29    51 1
   38    29    56 1
   39    31    32 1
   40    31    33 1
   41    31    34 1
   42    35    39 1
   43    35    45 1
   44    36    37 1
   45    36    38 1
   46    36    48 1
   47    39    40 1
   48    41    42 1
   49    41    43 1
   50    41    44 1
   51    45    46 1
   52    45    47 1
   53    45    54 1
   54    48    49 1
   55    48    50 1
   56    48    54 1
   57    51    52 1
   58    51    53 1
   59    51    60 1
   60    54    55 1
   61    56    57 1
   62    56    58 1
   63    56    59 1
   64    60    61 1
   65    60    62 1
   66    60    63 1
   67    63    64 1
   68    63    65 1
   69    63    66 1
   70    66    67 1
   71    66    68 1
   72    66    72 1
   73    68    69 1
   74    68    70 1
   75    68    71 1
   76    72    73 1
   77    72    74 1
   78    72    75 1
@<TRIPOS>SUBSTRUCTURE
      1  UNL              1 ****               0 ****  ****  


