@<TRIPOS>MOLECULE
UNL
   75    78     1     0     1
SMALL
USER_CHARGES
@<TRIPOS>ATOM
  1 O          -2.741243    2.986227    0.041860 O         1 UNL       -0.7276 ****
  2 H          -3.331179    2.718109    0.758971 H         1 UNL        0.4037 ****
  3 O          -7.862583   -1.360406    0.086288 O         1 UNL       -0.7383 ****
  4 H          -7.835676   -2.098034   -0.539291 H         1 UNL        0.4092 ****
  5 C           0.764331    0.431880    0.295949 C         1 UNL        0.4346 ****
  6 C          -0.330399    1.458539   -0.088824 C         1 UNL        0.2014 ****
  7 H          -0.584706    1.982317    0.843190 H         1 UNL       -0.0588 ****
  8 C          -1.640081    0.834128   -0.582386 C         1 UNL       -0.0531 ****
  9 H          -1.451512    0.290204   -1.519169 H         1 UNL       -0.0475 ****
 10 C          -2.198541   -0.151523    0.479400 C         1 UNL        0.0052 ****
 11 H          -2.515098    0.475118    1.329780 H         1 UNL       -0.0359 ****
 12 C           1.902938    1.415607    0.711098 C         1 UNL       -0.0764 ****
 13 H           1.533649    1.873222    1.640295 H         1 UNL       -0.0217 ****
 14 C           0.199588   -0.427313    1.440527 C         1 UNL       -0.1715 ****
 15 H           0.021359    0.219305    2.311761 H         1 UNL        0.0087 ****
 16 H           0.919200   -1.193154    1.760098 H         1 UNL        0.0087 ****
 17 C          -3.493444   -0.886570   -0.016447 C         1 UNL        0.3688 ****
 18 C           0.401730    2.488729   -0.968613 C         1 UNL       -0.1189 ****
 19 H          -0.088965    3.465468   -0.937989 H         1 UNL        0.0133 ****
 20 H           0.418015    2.170384   -2.018889 H         1 UNL        0.0133 ****
 21 C          -1.118927   -1.117293    1.032721 C         1 UNL       -0.0248 ****
 22 H          -0.891906   -1.886960    0.288481 H         1 UNL        0.0170 ****
 23 H          -1.518783   -1.650574    1.902757 H         1 UNL        0.0170 ****
 24 C           1.847643    2.529518   -0.381413 C         1 UNL       -0.0103 ****
 25 H           2.585128    2.352759   -1.169435 H         1 UNL        0.0034 ****
 26 H           2.081248    3.509993    0.046139 H         1 UNL        0.0034 ****
 27 C          -2.691268    1.910437   -0.924939 C         1 UNL        0.5223 ****
 28 H          -2.383239    2.413250   -1.849009 H         1 UNL       -0.0026 ****
 29 C           3.301062    0.832117    1.068392 C         1 UNL        0.2783 ****
 30 H           3.125154   -0.166895    1.496583 H         1 UNL       -0.0654 ****
 31 C           1.187602   -0.466802   -0.887041 C         1 UNL       -0.4761 ****
 32 H           0.355742   -1.061519   -1.273146 H         1 UNL        0.0922 ****
 33 H           1.581256    0.113847   -1.726007 H         1 UNL        0.0922 ****
 34 H           1.967186   -1.170258   -0.574794 H         1 UNL        0.0922 ****
 35 C          -4.441487    0.105077   -0.704301 C         1 UNL       -0.0692 ****
 36 C          -4.229257   -1.491452    1.219299 C         1 UNL       -0.1164 ****
 37 H          -4.292467   -0.715948    1.995393 H         1 UNL        0.0157 ****
 38 H          -3.624092   -2.301393    1.640264 H         1 UNL        0.0157 ****
 39 C          -4.063757    1.330318   -1.104933 C         1 UNL       -0.4758 ****
 40 H          -4.798869    1.988805   -1.566768 H         1 UNL        0.1785 ****
 41 C          -3.157754   -2.018212   -1.026012 C         1 UNL       -0.1547 ****
 42 H          -2.638309   -2.847495   -0.536607 H         1 UNL        0.0192 ****
 43 H          -4.060680   -2.430076   -1.483542 H         1 UNL        0.0192 ****
 44 H          -2.525063   -1.649066   -1.838722 H         1 UNL        0.0192 ****
 45 C          -5.866897   -0.360396   -0.939003 C         1 UNL       -0.1218 ****
 46 H          -6.471674    0.459679   -1.338293 H         1 UNL        0.0442 ****
 47 H          -5.877805   -1.158597   -1.698321 H         1 UNL        0.0442 ****
 48 C          -5.647732   -2.011857    0.940886 C         1 UNL       -0.1352 ****
 49 H          -5.614536   -2.869890    0.253280 H         1 UNL        0.0335 ****
 50 H          -6.103866   -2.372188    1.869904 H         1 UNL        0.0335 ****
 51 C           4.278014    0.654211   -0.118748 C         1 UNL       -0.0700 ****
 52 H           3.737611    0.327044   -1.012733 H         1 UNL       -0.0054 ****
 53 H           4.716922    1.629760   -0.372524 H         1 UNL       -0.0054 ****
 54 C          -6.525123   -0.918568    0.331877 C         1 UNL        0.4613 ****
 55 H          -6.641589   -0.105159    1.058674 H         1 UNL        0.0120 ****
 56 C           3.954579    1.686784    2.173962 C         1 UNL       -0.3123 ****
 57 H           4.092259    2.721177    1.835079 H         1 UNL        0.0634 ****
 58 H           4.937126    1.300468    2.463623 H         1 UNL        0.0634 ****
 59 H           3.331782    1.712197    3.075060 H         1 UNL        0.0634 ****
 60 C           5.411019   -0.351777    0.145917 C         1 UNL        0.1167 ****
 61 H           5.973594   -0.052400    1.038259 H         1 UNL       -0.0313 ****
 62 H           4.965929   -1.329281    0.376416 H         1 UNL       -0.0313 ****
 63 C           6.369673   -0.482532   -1.048478 C         1 UNL       -0.1092 ****
 64 H           6.790400    0.508938   -1.270295 H         1 UNL        0.0005 ****
 65 H           5.787801   -0.769006   -1.936651 H         1 UNL        0.0005 ****
 66 C           7.539877   -1.481799   -0.892652 C         1 UNL        0.4198 ****
 67 H           8.105022   -1.432840   -1.835263 H         1 UNL       -0.0869 ****
 68 C           7.061438   -2.934068   -0.729057 C         1 UNL       -0.2895 ****
 69 H           6.538467   -3.082872    0.222700 H         1 UNL        0.0537 ****
 70 H           7.909335   -3.628334   -0.747437 H         1 UNL        0.0537 ****
 71 H           6.376769   -3.221909   -1.535642 H         1 UNL        0.0537 ****
 72 C           8.509015   -1.089224    0.234831 C         1 UNL       -0.2910 ****
 73 H           8.038102   -1.174085    1.220982 H         1 UNL        0.0548 ****
 74 H           9.389596   -1.741786    0.236667 H         1 UNL        0.0548 ****
 75 H           8.858924   -0.056661    0.118913 H         1 UNL        0.0548 ****
@<TRIPOS>BOND
    1     1     2 1
    2     1    27 1
    3     3     4 1
    4     3    54 1
    5     5     6 1
    6     5    12 1
    7     5    14 1
    8     5    31 1
    9     6     7 1
   10     6     8 1
   11     6    18 1
   12     8     9 1
   13     8    10 1
   14     8    27 1
   15    10    11 1
   16    10    17 1
   17    10    21 1
   18    12    13 1
   19    12    24 1
   20    12    29 1
   21    14    15 1
   22    14    16 1
   23    14    21 1
   24    17    35 1
   25    17    36 1
   26    17    41 1
   27    18    19 1
   28    18    20 1
   29    18    24 1
   30    21    22 1
   31    21    23 1
   32    24    25 1
   33    24    26 1
   34    27    28 1
   35    27    39 1
   36    29    30 1
   37    29    51 1
   38    29    56 1
   39    31    32 1
   40    31    33 1
   41    31    34 1
   42    35    39 1
   43    35    45 1
   44    36    37 1
   45    36    38 1
   46    36    48 1
   47    39    40 1
   48    41    42 1
   49    41    43 1
   50    41    44 1
   51    45    46 1
   52    45    47 1
   53    45    54 1
   54    48    49 1
   55    48    50 1
   56    48    54 1
   57    51    52 1
   58    51    53 1
   59    51    60 1
   60    54    55 1
   61    56    57 1
   62    56    58 1
   63    56    59 1
   64    60    61 1
   65    60    62 1
   66    60    63 1
   67    63    64 1
   68    63    65 1
   69    63    66 1
   70    66    67 1
   71    66    68 1
   72    66    72 1
   73    68    69 1
   74    68    70 1
   75    68    71 1
   76    72    73 1
   77    72    74 1
   78    72    75 1
@<TRIPOS>SUBSTRUCTURE
      1  UNL              1 ****               0 ****  ****  


