@<TRIPOS>MOLECULE
UNL
   75    78     1     0     1
SMALL
USER_CHARGES
@<TRIPOS>ATOM
  1 O           2.269410    2.628945   -1.276384 O         1 UNL       -0.7276 ****
  2 H           2.820075    2.154044   -1.913153 H         1 UNL        0.4037 ****
  3 O           8.203302   -0.413932   -0.482572 O         1 UNL       -0.7383 ****
  4 H           8.411111   -0.781733    0.387888 H         1 UNL        0.4092 ****
  5 C          -0.598960   -0.260702    0.260570 C         1 UNL        0.4346 ****
  6 C           0.290727    0.977115   -0.043120 C         1 UNL        0.2014 ****
  7 H           0.314883    1.059080   -1.139161 H         1 UNL       -0.0588 ****
  8 C           1.753507    0.851587    0.400202 C         1 UNL       -0.0531 ****
  9 H           1.791351    0.770729    1.496251 H         1 UNL       -0.0475 ****
 10 C           2.404812   -0.407487   -0.225670 C         1 UNL        0.0052 ****
 11 H           2.476031   -0.204180   -1.307226 H         1 UNL       -0.0359 ****
 12 C          -1.974701    0.255729   -0.289997 C         1 UNL       -0.0764 ****
 13 H          -1.893614    0.222876   -1.388138 H         1 UNL       -0.0217 ****
 14 C           0.040794   -1.447359   -0.489628 C         1 UNL       -0.1715 ****
 15 H          -0.012814   -1.248907   -1.569765 H         1 UNL        0.0087 ****
 16 H          -0.503268   -2.381452   -0.318060 H         1 UNL        0.0087 ****
 17 C           3.877728   -0.626987    0.268132 C         1 UNL        0.3688 ****
 18 C          -0.530706    2.173747    0.454816 C         1 UNL       -0.1189 ****
 19 H          -0.244757    3.101964   -0.047612 H         1 UNL        0.0133 ****
 20 H          -0.383708    2.330643    1.531150 H         1 UNL        0.0133 ****
 21 C           1.511309   -1.661412   -0.076146 C         1 UNL       -0.0248 ****
 22 H           1.530124   -2.008649    0.962091 H         1 UNL        0.0170 ****
 23 H           1.924711   -2.481462   -0.674676 H         1 UNL        0.0170 ****
 24 C          -1.996211    1.761273    0.146774 C         1 UNL       -0.0103 ****
 25 H          -2.634412    1.892628    1.029008 H         1 UNL        0.0034 ****
 26 H          -2.424136    2.389793   -0.639619 H         1 UNL        0.0034 ****
 27 C           2.564986    2.115138    0.043902 C         1 UNL        0.5223 ****
 28 H           2.251918    2.928185    0.708959 H         1 UNL       -0.0026 ****
 29 C          -3.282225   -0.490812    0.083282 C         1 UNL        0.2783 ****
 30 H          -3.416160   -0.408689    1.172912 H         1 UNL       -0.0654 ****
 31 C          -0.707450   -0.559854    1.773487 C         1 UNL       -0.4761 ****
 32 H           0.269002   -0.716145    2.239343 H         1 UNL        0.0922 ****
 33 H          -1.195901    0.255122    2.316182 H         1 UNL        0.0922 ****
 34 H          -1.296686   -1.465988    1.949165 H         1 UNL        0.0922 ****
 35 C           4.644770    0.701889    0.270849 C         1 UNL       -0.0692 ****
 36 C           4.593571   -1.604023   -0.715219 C         1 UNL       -0.1164 ****
 37 H           4.396876   -1.264167   -1.741610 H         1 UNL        0.0157 ****
 38 H           4.144654   -2.599226   -0.627792 H         1 UNL        0.0157 ****
 39 C           4.044244    1.900028    0.180443 C         1 UNL       -0.4758 ****
 40 H           4.656030    2.801590    0.165635 H         1 UNL        0.1785 ****
 41 C           3.917479   -1.215243    1.705002 C         1 UNL       -0.1547 ****
 42 H           3.547376   -2.244683    1.723939 H         1 UNL        0.0192 ****
 43 H           4.934245   -1.231970    2.105208 H         1 UNL        0.0192 ****
 44 H           3.310438   -0.619924    2.393672 H         1 UNL        0.0192 ****
 45 C           6.155313    0.620936    0.394460 C         1 UNL       -0.1218 ****
 46 H           6.598006    1.615390    0.281270 H         1 UNL        0.0442 ****
 47 H           6.428429    0.267268    1.401500 H         1 UNL        0.0442 ****
 48 C           6.114309   -1.715670   -0.527715 C         1 UNL       -0.1352 ****
 49 H           6.349914   -2.162279    0.449579 H         1 UNL        0.0335 ****
 50 H           6.537796   -2.382558   -1.287254 H         1 UNL        0.0335 ****
 51 C          -4.500138    0.200807   -0.578745 C         1 UNL       -0.0700 ****
 52 H          -4.435516    1.282377   -0.414817 H         1 UNL       -0.0054 ****
 53 H          -4.438916    0.055301   -1.668387 H         1 UNL       -0.0054 ****
 54 C           6.782138   -0.344171   -0.623342 C         1 UNL        0.4613 ****
 55 H           6.632970    0.058047   -1.632999 H         1 UNL        0.0120 ****
 56 C          -3.253852   -1.986017   -0.280100 C         1 UNL       -0.3123 ****
 57 H          -3.037307   -2.125801   -1.346797 H         1 UNL        0.0634 ****
 58 H          -4.216552   -2.462666   -0.072861 H         1 UNL        0.0634 ****
 59 H          -2.499383   -2.534991    0.287702 H         1 UNL        0.0634 ****
 60 C          -5.878614   -0.264815   -0.080791 C         1 UNL        0.1167 ****
 61 H          -6.022649   -1.327746   -0.305032 H         1 UNL       -0.0313 ****
 62 H          -5.908577   -0.171526    1.013443 H         1 UNL       -0.0313 ****
 63 C          -7.024261    0.548413   -0.705521 C         1 UNL       -0.1092 ****
 64 H          -6.952165    0.471694   -1.800197 H         1 UNL        0.0005 ****
 65 H          -6.872079    1.610938   -0.466742 H         1 UNL        0.0005 ****
 66 C          -8.460774    0.158111   -0.286132 C         1 UNL        0.4198 ****
 67 H          -9.128816    0.847771   -0.823157 H         1 UNL       -0.0869 ****
 68 C          -8.715220    0.362167    1.216603 C         1 UNL       -0.2895 ****
 69 H          -8.129157   -0.336923    1.824306 H         1 UNL        0.0537 ****
 70 H          -9.771617    0.199181    1.458991 H         1 UNL        0.0537 ****
 71 H          -8.453543    1.379366    1.531220 H         1 UNL        0.0537 ****
 72 C          -8.840516   -1.266937   -0.721911 C         1 UNL       -0.2910 ****
 73 H          -8.260288   -2.023853   -0.181616 H         1 UNL        0.0548 ****
 74 H          -9.899987   -1.465631   -0.523614 H         1 UNL        0.0548 ****
 75 H          -8.667990   -1.415665   -1.794391 H         1 UNL        0.0548 ****
@<TRIPOS>BOND
    1     1     2 1
    2     1    27 1
    3     3     4 1
    4     3    54 1
    5     5     6 1
    6     5    12 1
    7     5    14 1
    8     5    31 1
    9     6     7 1
   10     6     8 1
   11     6    18 1
   12     8     9 1
   13     8    10 1
   14     8    27 1
   15    10    11 1
   16    10    17 1
   17    10    21 1
   18    12    13 1
   19    12    24 1
   20    12    29 1
   21    14    15 1
   22    14    16 1
   23    14    21 1
   24    17    35 1
   25    17    36 1
   26    17    41 1
   27    18    19 1
   28    18    20 1
   29    18    24 1
   30    21    22 1
   31    21    23 1
   32    24    25 1
   33    24    26 1
   34    27    28 1
   35    27    39 1
   36    29    30 1
   37    29    51 1
   38    29    56 1
   39    31    32 1
   40    31    33 1
   41    31    34 1
   42    35    39 1
   43    35    45 1
   44    36    37 1
   45    36    38 1
   46    36    48 1
   47    39    40 1
   48    41    42 1
   49    41    43 1
   50    41    44 1
   51    45    46 1
   52    45    47 1
   53    45    54 1
   54    48    49 1
   55    48    50 1
   56    48    54 1
   57    51    52 1
   58    51    53 1
   59    51    60 1
   60    54    55 1
   61    56    57 1
   62    56    58 1
   63    56    59 1
   64    60    61 1
   65    60    62 1
   66    60    63 1
   67    63    64 1
   68    63    65 1
   69    63    66 1
   70    66    67 1
   71    66    68 1
   72    66    72 1
   73    68    69 1
   74    68    70 1
   75    68    71 1
   76    72    73 1
   77    72    74 1
   78    72    75 1
@<TRIPOS>SUBSTRUCTURE
      1  UNL              1 ****               0 ****  ****  


