@<TRIPOS>MOLECULE
UNL
   75    78     1     0     1
SMALL
USER_CHARGES
@<TRIPOS>ATOM
  1 O           1.949202    2.705423   -0.999275 O         1 UNL       -0.7276 ****
  2 H           2.453114    2.311653   -1.723992 H         1 UNL        0.4037 ****
  3 O           8.055234   -0.091954   -1.050545 O         1 UNL       -0.7383 ****
  4 H           8.366514   -0.515121   -0.238017 H         1 UNL        0.4092 ****
  5 C          -0.622723   -0.432409    0.573065 C         1 UNL        0.4346 ****
  6 C           0.179263    0.867755    0.285707 C         1 UNL        0.2014 ****
  7 H           0.087163    1.035548   -0.796861 H         1 UNL       -0.0588 ****
  8 C           1.683894    0.780996    0.569601 C         1 UNL       -0.0531 ****
  9 H           1.838369    0.617830    1.646152 H         1 UNL       -0.0475 ****
 10 C           2.318804   -0.392111   -0.218915 C         1 UNL        0.0052 ****
 11 H           2.269583   -0.102695   -1.281912 H         1 UNL       -0.0359 ****
 12 C          -2.067545    0.056912    0.205210 C         1 UNL       -0.0764 ****
 13 H          -2.097218    0.114621   -0.894504 H         1 UNL       -0.0217 ****
 14 C          -0.014356   -1.524159   -0.331489 C         1 UNL       -0.1715 ****
 15 H          -0.186513   -1.245757   -1.381162 H         1 UNL        0.0087 ****
 16 H          -0.498498   -2.494621   -0.184104 H         1 UNL        0.0087 ****
 17 C           3.842677   -0.575526    0.106220 C         1 UNL        0.3688 ****
 18 C          -0.635477    1.980167    0.959069 C         1 UNL       -0.1189 ****
 19 H          -0.441738    2.957443    0.508305 H         1 UNL        0.0133 ****
 20 H          -0.385012    2.060671    2.024668 H         1 UNL        0.0133 ****
 21 C           1.498381   -1.696520   -0.084216 C         1 UNL       -0.0248 ****
 22 H           1.638080   -2.121028    0.915346 H         1 UNL        0.0170 ****
 23 H           1.881822   -2.446698   -0.785508 H         1 UNL        0.0170 ****
 24 C          -2.106546    1.520453    0.765758 C         1 UNL       -0.0103 ****
 25 H          -2.654304    1.549814    1.715493 H         1 UNL        0.0034 ****
 26 H          -2.640263    2.186468    0.081490 H         1 UNL        0.0034 ****
 27 C           2.400923    2.106998    0.238637 C         1 UNL        0.5223 ****
 28 H           2.124719    2.849779    0.995842 H         1 UNL       -0.0026 ****
 29 C          -3.298852   -0.779581    0.640943 C         1 UNL        0.2783 ****
 30 H          -3.323053   -0.794831    1.741531 H         1 UNL       -0.0654 ****
 31 C          -0.563539   -0.853474    2.059340 C         1 UNL       -0.4761 ****
 32 H           0.461218   -0.995058    2.412365 H         1 UNL        0.0922 ****
 33 H          -1.028888   -0.109333    2.712771 H         1 UNL        0.0922 ****
 34 H          -1.092071   -1.799655    2.216477 H         1 UNL        0.0922 ****
 35 C           4.550051    0.785694    0.140765 C         1 UNL       -0.0692 ****
 36 C           4.493137   -1.437496   -1.019799 C         1 UNL       -0.1164 ****
 37 H           4.177980   -1.029849   -1.990459 H         1 UNL        0.0157 ****
 38 H           4.097022   -2.457385   -0.969659 H         1 UNL        0.0157 ****
 39 C           3.894035    1.955899    0.209021 C         1 UNL       -0.4758 ****
 40 H           4.462919    2.885251    0.207373 H         1 UNL        0.1785 ****
 41 C           4.055330   -1.269513    1.479310 C         1 UNL       -0.1547 ****
 42 H           3.733058   -2.314720    1.451109 H         1 UNL        0.0192 ****
 43 H           5.107810   -1.265478    1.773426 H         1 UNL        0.0192 ****
 44 H           3.498019   -0.760222    2.271289 H         1 UNL        0.0192 ****
 45 C           6.067308    0.770129    0.106685 C         1 UNL       -0.1218 ****
 46 H           6.454646    1.790928    0.031473 H         1 UNL        0.0442 ****
 47 H           6.456846    0.353941    1.049502 H         1 UNL        0.0442 ****
 48 C           6.028356   -1.488052   -0.993993 C         1 UNL       -0.1352 ****
 49 H           6.381559   -1.996223   -0.084553 H         1 UNL        0.0335 ****
 50 H           6.398649   -2.072860   -1.843617 H         1 UNL        0.0335 ****
 51 C          -4.604645   -0.093106    0.167688 C         1 UNL       -0.0700 ****
 52 H          -4.581067    0.964036    0.457080 H         1 UNL       -0.0054 ****
 53 H          -4.624832   -0.106697   -0.931788 H         1 UNL       -0.0054 ****
 54 C           6.625487   -0.081901   -1.043471 C         1 UNL        0.4613 ****
 55 H           6.356760    0.388752   -1.997258 H         1 UNL        0.0120 ****
 56 C          -3.250882   -2.236652    0.148275 C         1 UNL       -0.3123 ****
 57 H          -3.151936   -2.278260   -0.943942 H         1 UNL        0.0634 ****
 58 H          -4.162998   -2.776505    0.419369 H         1 UNL        0.0634 ****
 59 H          -2.414246   -2.790623    0.579528 H         1 UNL        0.0634 ****
 60 C          -5.903367   -0.700629    0.725250 C         1 UNL        0.1167 ****
 61 H          -6.060559   -1.708825    0.325007 H         1 UNL       -0.0313 ****
 62 H          -5.794645   -0.823232    1.812370 H         1 UNL       -0.0313 ****
 63 C          -7.158042    0.154573    0.468091 C         1 UNL       -0.1092 ****
 64 H          -7.016663    1.134593    0.946426 H         1 UNL        0.0005 ****
 65 H          -8.012914   -0.312113    0.979844 H         1 UNL        0.0005 ****
 66 C          -7.548107    0.386002   -1.007390 C         1 UNL        0.4198 ****
 67 H          -6.700504    0.867912   -1.515385 H         1 UNL       -0.0869 ****
 68 C          -8.744204    1.347440   -1.095248 C         1 UNL       -0.2895 ****
 69 H          -9.628127    0.917804   -0.606340 H         1 UNL        0.0537 ****
 70 H          -9.010700    1.557627   -2.137393 H         1 UNL        0.0537 ****
 71 H          -8.525247    2.303356   -0.605641 H         1 UNL        0.0537 ****
 72 C          -7.856329   -0.926250   -1.745732 C         1 UNL       -0.2910 ****
 73 H          -8.684100   -1.460449   -1.261184 H         1 UNL        0.0548 ****
 74 H          -8.149856   -0.731456   -2.783553 H         1 UNL        0.0548 ****
 75 H          -6.993577   -1.599916   -1.769126 H         1 UNL        0.0548 ****
@<TRIPOS>BOND
    1     1     2 1
    2     1    27 1
    3     3     4 1
    4     3    54 1
    5     5     6 1
    6     5    12 1
    7     5    14 1
    8     5    31 1
    9     6     7 1
   10     6     8 1
   11     6    18 1
   12     8     9 1
   13     8    10 1
   14     8    27 1
   15    10    11 1
   16    10    17 1
   17    10    21 1
   18    12    13 1
   19    12    24 1
   20    12    29 1
   21    14    15 1
   22    14    16 1
   23    14    21 1
   24    17    35 1
   25    17    36 1
   26    17    41 1
   27    18    19 1
   28    18    20 1
   29    18    24 1
   30    21    22 1
   31    21    23 1
   32    24    25 1
   33    24    26 1
   34    27    28 1
   35    27    39 1
   36    29    30 1
   37    29    51 1
   38    29    56 1
   39    31    32 1
   40    31    33 1
   41    31    34 1
   42    35    39 1
   43    35    45 1
   44    36    37 1
   45    36    38 1
   46    36    48 1
   47    39    40 1
   48    41    42 1
   49    41    43 1
   50    41    44 1
   51    45    46 1
   52    45    47 1
   53    45    54 1
   54    48    49 1
   55    48    50 1
   56    48    54 1
   57    51    52 1
   58    51    53 1
   59    51    60 1
   60    54    55 1
   61    56    57 1
   62    56    58 1
   63    56    59 1
   64    60    61 1
   65    60    62 1
   66    60    63 1
   67    63    64 1
   68    63    65 1
   69    63    66 1
   70    66    67 1
   71    66    68 1
   72    66    72 1
   73    68    69 1
   74    68    70 1
   75    68    71 1
   76    72    73 1
   77    72    74 1
   78    72    75 1
@<TRIPOS>SUBSTRUCTURE
      1  UNL              1 ****               0 ****  ****  


