@<TRIPOS>MOLECULE
UNL
   76    79     1     0     1
SMALL
USER_CHARGES
@<TRIPOS>ATOM
  1 C          -6.538214   -0.353519    1.078190 C         1 UNL        0.3125 ****
  2 H          -6.239576   -0.144159    2.112710 H         1 UNL        0.0833 ****
  3 C          -5.939942    0.719553    0.158087 C         1 UNL       -0.2813 ****
  4 H          -6.268702    1.711906    0.481394 H         1 UNL        0.1141 ****
  5 H          -6.355210    0.562630   -0.850900 H         1 UNL        0.1141 ****
  6 C          -4.424943    0.663370    0.097662 C         1 UNL       -0.1008 ****
  7 C          -3.785789   -0.697602   -0.195770 C         1 UNL        0.0712 ****
  8 C          -4.483100   -1.774680    0.692473 C         1 UNL       -0.0457 ****
  9 H          -4.146513   -1.635827    1.729342 H         1 UNL        0.0227 ****
 10 H          -4.148659   -2.772227    0.388457 H         1 UNL        0.0227 ****
 11 C          -6.018995   -1.733643    0.676132 C         1 UNL       -0.1274 ****
 12 H          -6.400109   -1.981588   -0.325606 H         1 UNL        0.0475 ****
 13 H          -6.420474   -2.489976    1.360141 H         1 UNL        0.0475 ****
 14 C          -3.703821    1.777272    0.280520 C         1 UNL       -0.1968 ****
 15 H          -4.207655    2.717078    0.495069 H         1 UNL        0.1576 ****
 16 C          -2.210479    1.873643    0.173823 C         1 UNL        0.0640 ****
 17 H          -1.778860    2.155538    1.146800 H         1 UNL        0.0883 ****
 18 C          -1.526796    0.603893   -0.359487 C         1 UNL        0.0121 ****
 19 H          -1.603523    0.638404   -1.454250 H         1 UNL        0.1167 ****
 20 C          -2.262997   -0.658033    0.171699 C         1 UNL        0.0253 ****
 21 H          -2.226630   -0.585153    1.270907 H         1 UNL        0.0177 ****
 22 C          -1.505232   -1.948139   -0.216274 C         1 UNL       -0.0836 ****
 23 H          -1.598208   -2.120744   -1.294009 H         1 UNL        0.0379 ****
 24 H          -1.976837   -2.809466    0.269027 H         1 UNL        0.0379 ****
 25 C          -0.010385   -1.939847    0.156916 C         1 UNL       -0.0976 ****
 26 H           0.092088   -1.918604    1.251588 H         1 UNL        0.0207 ****
 27 H           0.435438   -2.881381   -0.178146 H         1 UNL        0.0207 ****
 28 C           0.724421   -0.718237   -0.430840 C         1 UNL        0.0951 ****
 29 C          -0.045904    0.542455    0.058902 C         1 UNL        0.0117 ****
 30 H          -0.053806    0.462510    1.159624 H         1 UNL        0.0131 ****
 31 C           0.891022    1.711159   -0.283634 C         1 UNL       -0.1079 ****
 32 H           0.701448    2.591234    0.338672 H         1 UNL        0.0455 ****
 33 H           0.752030    2.028760   -1.321885 H         1 UNL        0.0455 ****
 34 C           2.309808    1.125033   -0.052634 C         1 UNL       -0.1391 ****
 35 H           2.959123    1.327213   -0.912882 H         1 UNL        0.0442 ****
 36 H           2.792121    1.589016    0.812970 H         1 UNL        0.0442 ****
 37 C           2.147514   -0.418627    0.158470 C         1 UNL        0.0328 ****
 38 H           2.073330   -0.607203    1.241498 H         1 UNL        0.0057 ****
 39 C           0.788215   -0.805406   -1.973162 C         1 UNL       -0.1398 ****
 40 H          -0.203909   -0.810925   -2.431540 H         1 UNL        0.0296 ****
 41 H           1.338554    0.034017   -2.408364 H         1 UNL        0.0296 ****
 42 H           1.293537   -1.724201   -2.287794 H         1 UNL        0.0296 ****
 43 C           3.372575   -1.222481   -0.350283 C         1 UNL        0.1104 ****
 44 H           3.502771   -0.993115   -1.418943 H         1 UNL       -0.0189 ****
 45 C           3.200866   -2.745431   -0.205872 C         1 UNL       -0.1367 ****
 46 H           2.945764   -3.013057    0.827112 H         1 UNL        0.0276 ****
 47 H           4.122364   -3.275001   -0.465612 H         1 UNL        0.0276 ****
 48 H           2.415707   -3.138267   -0.855820 H         1 UNL        0.0276 ****
 49 C          -4.007549   -1.034792   -1.694538 C         1 UNL       -0.0508 ****
 50 H          -3.706689   -2.062368   -1.921479 H         1 UNL        0.0158 ****
 51 H          -5.059782   -0.938193   -1.974365 H         1 UNL        0.0158 ****
 52 H          -3.440802   -0.358085   -2.340919 H         1 UNL        0.0158 ****
 53 O          -1.851947    2.915007   -0.769620 O         1 UNL       -0.2568 ****
 54 O          -2.238346    4.196404   -0.187313 O         1 UNL       -0.3985 ****
 55 H          -1.363658    4.600084   -0.062977 H         1 UNL        0.3923 ****
 56 O          -7.967010   -0.293383    1.108077 O         1 UNL       -0.6944 ****
 57 H          -8.302662   -0.464079    0.216793 H         1 UNL        0.4082 ****
 58 C           4.661969   -0.760785    0.377050 C         1 UNL       -0.0170 ****
 59 H           4.661420    0.330505    0.455840 H         1 UNL       -0.0031 ****
 60 H           4.637928   -1.140125    1.410648 H         1 UNL       -0.0031 ****
 61 C           5.974971   -1.196482   -0.294114 C         1 UNL        0.0048 ****
 62 H           5.984520   -2.285104   -0.426012 H         1 UNL        0.0019 ****
 63 H           6.016826   -0.773708   -1.307156 H         1 UNL        0.0019 ****
 64 C           7.245902   -0.814882    0.488060 C         1 UNL       -0.0779 ****
 65 H           8.116105   -1.250999   -0.024692 H         1 UNL        0.0092 ****
 66 H           7.204486   -1.297292    1.475421 H         1 UNL        0.0092 ****
 67 C           7.516679    0.691022    0.693396 C         1 UNL        0.2618 ****
 68 H           6.659065    1.127327    1.225213 H         1 UNL       -0.0417 ****
 69 C           8.755786    0.889276    1.581228 C         1 UNL       -0.2170 ****
 70 H           9.651853    0.476621    1.099939 H         1 UNL        0.0433 ****
 71 H           8.942102    1.952044    1.773652 H         1 UNL        0.0433 ****
 72 H           8.638061    0.388646    2.549190 H         1 UNL        0.0433 ****
 73 C           7.680454    1.444342   -0.636179 C         1 UNL       -0.2059 ****
 74 H           8.514026    1.029942   -1.218164 H         1 UNL        0.0403 ****
 75 H           7.893210    2.505137   -0.461381 H         1 UNL        0.0403 ****
 76 H           6.780594    1.387433   -1.257199 H         1 UNL        0.0403 ****
@<TRIPOS>BOND
    1     1     2 1
    2     1     3 1
    3     1    11 1
    4     1    56 1
    5     3     4 1
    6     3     5 1
    7     3     6 1
    8     6     7 1
    9     6    14 1
   10     7     8 1
   11     7    20 1
   12     7    49 1
   13     8     9 1
   14     8    10 1
   15     8    11 1
   16    11    12 1
   17    11    13 1
   18    14    15 1
   19    14    16 1
   20    16    17 1
   21    16    18 1
   22    16    53 1
   23    18    19 1
   24    18    20 1
   25    18    29 1
   26    20    21 1
   27    20    22 1
   28    22    23 1
   29    22    24 1
   30    22    25 1
   31    25    26 1
   32    25    27 1
   33    25    28 1
   34    28    29 1
   35    28    37 1
   36    28    39 1
   37    29    30 1
   38    29    31 1
   39    31    32 1
   40    31    33 1
   41    31    34 1
   42    34    35 1
   43    34    36 1
   44    34    37 1
   45    37    38 1
   46    37    43 1
   47    39    40 1
   48    39    41 1
   49    39    42 1
   50    43    44 1
   51    43    45 1
   52    43    58 1
   53    45    46 1
   54    45    47 1
   55    45    48 1
   56    49    50 1
   57    49    51 1
   58    49    52 1
   59    53    54 1
   60    54    55 1
   61    56    57 1
   62    58    59 1
   63    58    60 1
   64    58    61 1
   65    61    62 1
   66    61    63 1
   67    61    64 1
   68    64    65 1
   69    64    66 1
   70    64    67 1
   71    67    68 1
   72    67    69 1
   73    67    73 1
   74    69    70 1
   75    69    71 1
   76    69    72 1
   77    73    74 1
   78    73    75 1
   79    73    76 1
@<TRIPOS>SUBSTRUCTURE
      1  UNL              1 ****               0 ****  ****  


