@<TRIPOS>MOLECULE
UNL
   76    79     1     0     1
SMALL
USER_CHARGES
@<TRIPOS>ATOM
  1 C           6.526168   -0.430565   -1.136860 C         1 UNL        0.3125 ****
  2 H           6.217795   -0.355244   -2.186800 H         1 UNL        0.0833 ****
  3 C           5.930449    0.748612   -0.354719 C         1 UNL       -0.2813 ****
  4 H           6.254057    1.692875   -0.803900 H         1 UNL        0.1141 ****
  5 H           6.354463    0.720191    0.662257 H         1 UNL        0.1141 ****
  6 C           4.416853    0.696853   -0.271437 C         1 UNL       -0.1008 ****
  7 C           3.779958   -0.619075    0.189010 C         1 UNL        0.0712 ****
  8 C           4.480671   -1.796927   -0.557527 C         1 UNL       -0.0457 ****
  9 H           4.137203   -1.796005   -1.601379 H         1 UNL        0.0227 ****
 10 H           4.152758   -2.747603   -0.124575 H         1 UNL        0.0227 ****
 11 C           6.016240   -1.748994   -0.557156 C         1 UNL       -0.1274 ****
 12 H           6.404998   -1.864637    0.465565 H         1 UNL        0.0475 ****
 13 H           6.416360   -2.585519   -1.141263 H         1 UNL        0.0475 ****
 14 C           3.687492    1.777042   -0.581979 C         1 UNL       -0.1968 ****
 15 H           4.187631    2.681258   -0.930623 H         1 UNL        0.1576 ****
 16 C           2.193938    1.879564   -0.482133 C         1 UNL        0.0640 ****
 17 H           1.769484    2.021029   -1.489458 H         1 UNL        0.0883 ****
 18 C           1.517539    0.682271    0.202743 C         1 UNL        0.0121 ****
 19 H           1.604484    0.846758    1.282241 H         1 UNL        0.1167 ****
 20 C           2.256041   -0.629405   -0.183445 C         1 UNL        0.0253 ****
 21 H           2.223439   -0.682600   -1.284447 H         1 UNL        0.0177 ****
 22 C           1.505476   -1.874061    0.342213 C         1 UNL       -0.0836 ****
 23 H           1.603144   -1.932222    1.431725 H         1 UNL        0.0379 ****
 24 H           1.975974   -2.781309   -0.052359 H         1 UNL        0.0379 ****
 25 C           0.008573   -1.906738   -0.022566 C         1 UNL       -0.0976 ****
 26 H          -0.098976   -1.999976   -1.113028 H         1 UNL        0.0207 ****
 27 H          -0.433587   -2.809073    0.410918 H         1 UNL        0.0207 ****
 28 C          -0.724876   -0.631308    0.438185 C         1 UNL        0.0951 ****
 29 C           0.034052    0.572733   -0.192104 C         1 UNL        0.0117 ****
 30 H           0.028204    0.376801   -1.279078 H         1 UNL        0.0131 ****
 31 C          -0.902729    1.768786    0.040181 C         1 UNL       -0.1079 ****
 32 H          -0.720639    2.586731   -0.661524 H         1 UNL        0.0455 ****
 33 H          -0.754208    2.187270    1.040838 H         1 UNL        0.0455 ****
 34 C          -2.320780    1.156967   -0.116049 C         1 UNL       -0.1391 ****
 35 H          -2.965962    1.448662    0.721432 H         1 UNL        0.0442 ****
 36 H          -2.809935    1.524408   -1.023331 H         1 UNL        0.0442 ****
 37 C          -2.155877   -0.400465   -0.162312 C         1 UNL        0.0328 ****
 38 H          -2.094497   -0.704803   -1.219617 H         1 UNL        0.0057 ****
 39 C          -0.771246   -0.552585    1.981677 C         1 UNL       -0.1398 ****
 40 H           0.225631   -0.499617    2.426490 H         1 UNL        0.0296 ****
 41 H          -1.324375    0.324594    2.329508 H         1 UNL        0.0296 ****
 42 H          -1.264770   -1.436342    2.399090 H         1 UNL        0.0296 ****
 43 C          -3.371658   -1.147823    0.445367 C         1 UNL        0.1104 ****
 44 H          -3.491349   -0.802562    1.483642 H         1 UNL       -0.0189 ****
 45 C          -3.195966   -2.677069    0.467877 C         1 UNL       -0.1367 ****
 46 H          -2.951002   -3.056480   -0.532092 H         1 UNL        0.0276 ****
 47 H          -4.112758   -3.177182    0.794584 H         1 UNL        0.0276 ****
 48 H          -2.402376   -2.993722    1.148540 H         1 UNL        0.0276 ****
 49 C           4.001968   -0.763377    1.718257 C         1 UNL       -0.0508 ****
 50 H           3.692256   -1.751103    2.073392 H         1 UNL        0.0158 ****
 51 H           5.056072   -0.642478    1.982780 H         1 UNL        0.0158 ****
 52 H           3.440953   -0.004916    2.271823 H         1 UNL        0.0158 ****
 53 O           1.815303    3.148773    0.108949 O         1 UNL       -0.2568 ****
 54 O           2.255477    3.178971    1.498803 O         1 UNL       -0.3985 ****
 55 H           3.047521    3.736887    1.430137 H         1 UNL        0.3923 ****
 56 O           7.953873   -0.366580   -1.186474 O         1 UNL       -0.6944 ****
 57 H           8.299887   -0.459329   -0.287659 H         1 UNL        0.4082 ****
 58 C          -4.670634   -0.773160   -0.314239 C         1 UNL       -0.0170 ****
 59 H          -4.672196    0.301622   -0.518712 H         1 UNL       -0.0031 ****
 60 H          -4.658676   -1.269546   -1.297270 H         1 UNL       -0.0031 ****
 61 C          -5.974431   -1.128796    0.419158 C         1 UNL        0.0048 ****
 62 H          -5.977093   -2.193391    0.682549 H         1 UNL        0.0019 ****
 63 H          -6.007738   -0.586151    1.373717 H         1 UNL        0.0019 ****
 64 C          -7.255495   -0.849900   -0.389344 C         1 UNL       -0.0779 ****
 65 H          -8.118227   -1.223259    0.182328 H         1 UNL        0.0092 ****
 66 H          -7.222145   -1.448845   -1.311031 H         1 UNL        0.0092 ****
 67 C          -7.535385    0.618808   -0.773672 C         1 UNL        0.2618 ****
 68 H          -6.684459    0.990428   -1.362218 H         1 UNL       -0.0417 ****
 69 C          -8.783089    0.703071   -1.667591 C         1 UNL       -0.2170 ****
 70 H          -9.672951    0.348461   -1.131553 H         1 UNL        0.0433 ****
 71 H          -8.976265    1.733916   -1.985837 H         1 UNL        0.0433 ****
 72 H          -8.671267    0.089077   -2.568701 H         1 UNL        0.0433 ****
 73 C          -7.691454    1.527469    0.455939 C         1 UNL       -0.2059 ****
 74 H          -8.518194    1.183700    1.091296 H         1 UNL        0.0403 ****
 75 H          -7.910589    2.558389    0.155458 H         1 UNL        0.0403 ****
 76 H          -6.786091    1.549985    1.071070 H         1 UNL        0.0403 ****
@<TRIPOS>BOND
    1     1     2 1
    2     1     3 1
    3     1    11 1
    4     1    56 1
    5     3     4 1
    6     3     5 1
    7     3     6 1
    8     6     7 1
    9     6    14 1
   10     7     8 1
   11     7    20 1
   12     7    49 1
   13     8     9 1
   14     8    10 1
   15     8    11 1
   16    11    12 1
   17    11    13 1
   18    14    15 1
   19    14    16 1
   20    16    17 1
   21    16    18 1
   22    16    53 1
   23    18    19 1
   24    18    20 1
   25    18    29 1
   26    20    21 1
   27    20    22 1
   28    22    23 1
   29    22    24 1
   30    22    25 1
   31    25    26 1
   32    25    27 1
   33    25    28 1
   34    28    29 1
   35    28    37 1
   36    28    39 1
   37    29    30 1
   38    29    31 1
   39    31    32 1
   40    31    33 1
   41    31    34 1
   42    34    35 1
   43    34    36 1
   44    34    37 1
   45    37    38 1
   46    37    43 1
   47    39    40 1
   48    39    41 1
   49    39    42 1
   50    43    44 1
   51    43    45 1
   52    43    58 1
   53    45    46 1
   54    45    47 1
   55    45    48 1
   56    49    50 1
   57    49    51 1
   58    49    52 1
   59    53    54 1
   60    54    55 1
   61    56    57 1
   62    58    59 1
   63    58    60 1
   64    58    61 1
   65    61    62 1
   66    61    63 1
   67    61    64 1
   68    64    65 1
   69    64    66 1
   70    64    67 1
   71    67    68 1
   72    67    69 1
   73    67    73 1
   74    69    70 1
   75    69    71 1
   76    69    72 1
   77    73    74 1
   78    73    75 1
   79    73    76 1
@<TRIPOS>SUBSTRUCTURE
      1  UNL              1 ****               0 ****  ****  


