@<TRIPOS>MOLECULE
UNL
   76    79     1     0     1
SMALL
USER_CHARGES
@<TRIPOS>ATOM
  1 C          -5.293836    2.386337   -0.361191 C         1 UNL        0.3125 ****
  2 H          -4.855983    2.780879   -1.286264 H         1 UNL        0.0833 ****
  3 C          -5.310141    0.852706   -0.429823 C         1 UNL       -0.2813 ****
  4 H          -5.869999    0.526902   -1.312158 H         1 UNL        0.1141 ****
  5 H          -5.864662    0.487128    0.449755 H         1 UNL        0.1141 ****
  6 C          -3.919131    0.247847   -0.436360 C         1 UNL       -0.1008 ****
  7 C          -2.940649    0.717418    0.646047 C         1 UNL        0.0712 ****
  8 C          -3.026968    2.272388    0.750123 C         1 UNL       -0.0457 ****
  9 H          -2.531201    2.704492   -0.130267 H         1 UNL        0.0227 ****
 10 H          -2.458352    2.610244    1.622629 H         1 UNL        0.0227 ****
 11 C          -4.450997    2.843768    0.828171 C         1 UNL       -0.1274 ****
 12 H          -4.943164    2.525552    1.759263 H         1 UNL        0.0475 ****
 13 H          -4.413432    3.938798    0.851540 H         1 UNL        0.0475 ****
 14 C          -3.586712   -0.667232   -1.356793 C         1 UNL       -0.1968 ****
 15 H          -4.310783   -0.946767   -2.122868 H         1 UNL        0.1576 ****
 16 C          -2.272144   -1.385858   -1.437157 C         1 UNL        0.0640 ****
 17 H          -1.756349   -1.101500   -2.368849 H         1 UNL        0.0883 ****
 18 C          -1.343442   -1.148819   -0.236547 C         1 UNL        0.0121 ****
 19 H          -1.679064   -1.824544    0.557277 H         1 UNL        0.1167 ****
 20 C          -1.475780    0.324448    0.244122 C         1 UNL        0.0253 ****
 21 H          -1.233654    0.950551   -0.630826 H         1 UNL        0.0177 ****
 22 C          -0.431154    0.665242    1.332772 C         1 UNL       -0.0836 ****
 23 H          -0.687492    0.153552    2.266611 H         1 UNL        0.0379 ****
 24 H          -0.469287    1.737346    1.554487 H         1 UNL        0.0379 ****
 25 C           1.015157    0.299176    0.946971 C         1 UNL       -0.0976 ****
 26 H           1.332540    0.922533    0.099102 H         1 UNL        0.0207 ****
 27 H           1.676359    0.548480    1.785244 H         1 UNL        0.0207 ****
 28 C           1.143970   -1.184175    0.554573 C         1 UNL        0.0951 ****
 29 C           0.123806   -1.443678   -0.594733 C         1 UNL        0.0117 ****
 30 H           0.386207   -0.715445   -1.381854 H         1 UNL        0.0131 ****
 31 C           0.514243   -2.833224   -1.134599 C         1 UNL       -0.1079 ****
 32 H           0.194472   -2.982293   -2.169103 H         1 UNL        0.0455 ****
 33 H           0.032247   -3.623220   -0.549732 H         1 UNL        0.0455 ****
 34 C           2.060524   -2.872581   -0.975682 C         1 UNL       -0.1391 ****
 35 H           2.371277   -3.776268   -0.441522 H         1 UNL        0.0442 ****
 36 H           2.571009   -2.900464   -1.944870 H         1 UNL        0.0442 ****
 37 C           2.463409   -1.583719   -0.192337 C         1 UNL        0.0328 ****
 38 H           2.592123   -0.799023   -0.950528 H         1 UNL        0.0057 ****
 39 C           0.865665   -2.084460    1.781090 C         1 UNL       -0.1398 ****
 40 H          -0.176432   -2.026048    2.105238 H         1 UNL        0.0296 ****
 41 H           1.078246   -3.136849    1.578289 H         1 UNL        0.0296 ****
 42 H           1.483271   -1.780468    2.631219 H         1 UNL        0.0296 ****
 43 C           3.855189   -1.699854    0.494429 C         1 UNL        0.1104 ****
 44 H           4.514361   -2.041957   -0.320483 H         1 UNL       -0.0189 ****
 45 C           3.991900   -2.750832    1.614747 C         1 UNL       -0.1367 ****
 46 H           3.558062   -2.405240    2.557604 H         1 UNL        0.0276 ****
 47 H           5.052930   -2.951422    1.802228 H         1 UNL        0.0276 ****
 48 H           3.521092   -3.704678    1.360366 H         1 UNL        0.0276 ****
 49 C          -3.359032    0.079079    1.997357 C         1 UNL       -0.0508 ****
 50 H          -2.780482    0.493575    2.828655 H         1 UNL        0.0158 ****
 51 H          -4.414381    0.262417    2.216938 H         1 UNL        0.0158 ****
 52 H          -3.215905   -1.005201    1.982849 H         1 UNL        0.0158 ****
 53 O          -2.484193   -2.794049   -1.710690 O         1 UNL       -0.2568 ****
 54 O          -3.144607   -3.409168   -0.565219 O         1 UNL       -0.3985 ****
 55 H          -4.057520   -3.473289   -0.890446 H         1 UNL        0.3923 ****
 56 O          -6.616188    2.930265   -0.340546 O         1 UNL       -0.6944 ****
 57 H          -7.056165    2.644960    0.472611 H         1 UNL        0.4082 ****
 58 C           4.451559   -0.358980    0.985297 C         1 UNL       -0.0170 ****
 59 H           3.815798    0.064222    1.774291 H         1 UNL       -0.0031 ****
 60 H           5.411505   -0.585747    1.471310 H         1 UNL       -0.0031 ****
 61 C           4.708920    0.704821   -0.093526 C         1 UNL        0.0048 ****
 62 H           5.301236    0.252281   -0.900553 H         1 UNL        0.0019 ****
 63 H           3.761475    1.019872   -0.544773 H         1 UNL        0.0019 ****
 64 C           5.442981    1.934041    0.467065 C         1 UNL       -0.0779 ****
 65 H           6.387780    1.602006    0.921261 H         1 UNL        0.0092 ****
 66 H           4.845076    2.355178    1.288429 H         1 UNL        0.0092 ****
 67 C           5.759147    3.069369   -0.534388 C         1 UNL        0.2618 ****
 68 H           6.279420    3.846033    0.045605 H         1 UNL       -0.0417 ****
 69 C           6.716755    2.623708   -1.651959 C         1 UNL       -0.2170 ****
 70 H           6.247837    1.890125   -2.317876 H         1 UNL        0.0433 ****
 71 H           7.020241    3.477284   -2.268845 H         1 UNL        0.0433 ****
 72 H           7.625756    2.169091   -1.240740 H         1 UNL        0.0433 ****
 73 C           4.492261    3.716476   -1.118347 C         1 UNL       -0.2059 ****
 74 H           3.945226    3.022067   -1.766446 H         1 UNL        0.0403 ****
 75 H           4.746440    4.594747   -1.722727 H         1 UNL        0.0403 ****
 76 H           3.809212    4.043251   -0.325365 H         1 UNL        0.0403 ****
@<TRIPOS>BOND
    1     1     2 1
    2     1     3 1
    3     1    11 1
    4     1    56 1
    5     3     4 1
    6     3     5 1
    7     3     6 1
    8     6     7 1
    9     6    14 1
   10     7     8 1
   11     7    20 1
   12     7    49 1
   13     8     9 1
   14     8    10 1
   15     8    11 1
   16    11    12 1
   17    11    13 1
   18    14    15 1
   19    14    16 1
   20    16    17 1
   21    16    18 1
   22    16    53 1
   23    18    19 1
   24    18    20 1
   25    18    29 1
   26    20    21 1
   27    20    22 1
   28    22    23 1
   29    22    24 1
   30    22    25 1
   31    25    26 1
   32    25    27 1
   33    25    28 1
   34    28    29 1
   35    28    37 1
   36    28    39 1
   37    29    30 1
   38    29    31 1
   39    31    32 1
   40    31    33 1
   41    31    34 1
   42    34    35 1
   43    34    36 1
   44    34    37 1
   45    37    38 1
   46    37    43 1
   47    39    40 1
   48    39    41 1
   49    39    42 1
   50    43    44 1
   51    43    45 1
   52    43    58 1
   53    45    46 1
   54    45    47 1
   55    45    48 1
   56    49    50 1
   57    49    51 1
   58    49    52 1
   59    53    54 1
   60    54    55 1
   61    56    57 1
   62    58    59 1
   63    58    60 1
   64    58    61 1
   65    61    62 1
   66    61    63 1
   67    61    64 1
   68    64    65 1
   69    64    66 1
   70    64    67 1
   71    67    68 1
   72    67    69 1
   73    67    73 1
   74    69    70 1
   75    69    71 1
   76    69    72 1
   77    73    74 1
   78    73    75 1
   79    73    76 1
@<TRIPOS>SUBSTRUCTURE
      1  UNL              1 ****               0 ****  ****  


