@<TRIPOS>MOLECULE
UNL
   76    79     1     0     1
SMALL
USER_CHARGES
@<TRIPOS>ATOM
  1 C          -5.976335   -1.534664    1.231294 C         1 UNL        0.3125 ****
  2 H          -5.484794   -1.869155    2.153056 H         1 UNL        0.0833 ****
  3 C          -5.654487   -0.050932    1.002862 C         1 UNL       -0.2813 ****
  4 H          -5.977238    0.536038    1.868551 H         1 UNL        0.1141 ****
  5 H          -6.257305    0.291172    0.145900 H         1 UNL        0.1141 ****
  6 C          -4.185626    0.196705    0.717097 C         1 UNL       -0.1008 ****
  7 C          -3.523849   -0.660382   -0.367717 C         1 UNL        0.0712 ****
  8 C          -3.954454   -2.145599   -0.156535 C         1 UNL       -0.0457 ****
  9 H          -3.422154   -2.536938    0.721582 H         1 UNL        0.0227 ****
 10 H          -3.623920   -2.744674   -1.011330 H         1 UNL        0.0227 ****
 11 C          -5.460019   -2.364960    0.057236 C         1 UNL       -0.1274 ****
 12 H          -6.021445   -2.091909   -0.848673 H         1 UNL        0.0475 ****
 13 H          -5.660396   -3.426361    0.242501 H         1 UNL        0.0475 ****
 14 C          -3.517697    1.141527    1.392602 C         1 UNL       -0.1968 ****
 15 H          -4.027647    1.705322    2.174512 H         1 UNL        0.1576 ****
 16 C          -2.085961    1.528457    1.165895 C         1 UNL        0.0640 ****
 17 H          -1.494991    1.284439    2.063749 H         1 UNL        0.0883 ****
 18 C          -1.440820    0.884543   -0.070677 C         1 UNL        0.0121 ****
 19 H          -1.747068    1.484705   -0.934432 H         1 UNL        0.1167 ****
 20 C          -1.962986   -0.570081   -0.236658 C         1 UNL        0.0253 ****
 21 H          -1.717249   -1.088863    0.704909 H         1 UNL        0.0177 ****
 22 C          -1.210280   -1.315905   -1.362314 C         1 UNL       -0.0836 ****
 23 H          -1.509646   -0.914489   -2.336559 H         1 UNL        0.0379 ****
 24 H          -1.506738   -2.370520   -1.366290 H         1 UNL        0.0379 ****
 25 C           0.325040   -1.244417   -1.248351 C         1 UNL       -0.0976 ****
 26 H           0.649155   -1.782679   -0.345792 H         1 UNL        0.0207 ****
 27 H           0.760984   -1.775886   -2.100336 H         1 UNL        0.0207 ****
 28 C           0.828884    0.209639   -1.164159 C         1 UNL        0.0951 ****
 29 C           0.094169    0.869768    0.038639 C         1 UNL        0.0117 ****
 30 H           0.324625    0.222245    0.903124 H         1 UNL        0.0131 ****
 31 C           0.852839    2.188123    0.267458 C         1 UNL       -0.1079 ****
 32 H           0.745302    2.559115    1.289995 H         1 UNL        0.0455 ****
 33 H           0.464054    2.976769   -0.384681 H         1 UNL        0.0455 ****
 34 C           2.323158    1.833774   -0.086320 C         1 UNL       -0.1391 ****
 35 H           2.733223    2.557377   -0.800781 H         1 UNL        0.0442 ****
 36 H           2.970939    1.873930    0.795422 H         1 UNL        0.0442 ****
 37 C           2.317315    0.399724   -0.709209 C         1 UNL        0.0328 ****
 38 H           2.472861   -0.325490    0.103396 H         1 UNL        0.0057 ****
 39 C           0.571877    0.954017   -2.494157 C         1 UNL       -0.1398 ****
 40 H          -0.491531    1.016240   -2.738374 H         1 UNL        0.0296 ****
 41 H           0.955577    1.978085   -2.470862 H         1 UNL        0.0296 ****
 42 H           1.064557    0.438362   -3.325387 H         1 UNL        0.0296 ****
 43 C           3.460615    0.194197   -1.734095 C         1 UNL        0.1104 ****
 44 H           3.310281    0.925310   -2.541841 H         1 UNL       -0.0189 ****
 45 C           3.475039   -1.203697   -2.381107 C         1 UNL       -0.1367 ****
 46 H           3.449226   -2.002477   -1.631436 H         1 UNL        0.0276 ****
 47 H           4.384438   -1.339299   -2.978599 H         1 UNL        0.0276 ****
 48 H           2.623640   -1.353897   -3.049815 H         1 UNL        0.0276 ****
 49 C          -4.016873   -0.165210   -1.753477 C         1 UNL       -0.0508 ****
 50 H          -3.688145   -0.834172   -2.554735 H         1 UNL        0.0158 ****
 51 H          -5.108591   -0.122405   -1.797922 H         1 UNL        0.0158 ****
 52 H          -3.645202    0.840823   -1.968177 H         1 UNL        0.0158 ****
 53 O          -1.946232    2.971857    1.182056 O         1 UNL       -0.2568 ****
 54 O          -2.639848    3.532148    0.028183 O         1 UNL       -0.3985 ****
 55 H          -3.453718    3.861568    0.443404 H         1 UNL        0.3923 ****
 56 O          -7.368694   -1.742565    1.482382 O         1 UNL       -0.6944 ****
 57 H          -7.866875   -1.495254    0.690643 H         1 UNL        0.4082 ****
 58 C           4.852956    0.524134   -1.131926 C         1 UNL       -0.0170 ****
 59 H           5.590803    0.449109   -1.943677 H         1 UNL       -0.0031 ****
 60 H           4.870966    1.572989   -0.810670 H         1 UNL       -0.0031 ****
 61 C           5.325090   -0.356535    0.037228 C         1 UNL        0.0048 ****
 62 H           4.618588   -0.271175    0.871883 H         1 UNL        0.0019 ****
 63 H           5.318383   -1.409829   -0.268211 H         1 UNL        0.0019 ****
 64 C           6.734034    0.032410    0.514797 C         1 UNL       -0.0779 ****
 65 H           6.727780    1.094859    0.798624 H         1 UNL        0.0092 ****
 66 H           7.427130   -0.048509   -0.335184 H         1 UNL        0.0092 ****
 67 C           7.316029   -0.781179    1.694276 C         1 UNL        0.2618 ****
 68 H           8.314893   -0.361648    1.885559 H         1 UNL       -0.0417 ****
 69 C           6.502350   -0.614839    2.988484 C         1 UNL       -0.2170 ****
 70 H           5.507744   -1.067434    2.902122 H         1 UNL        0.0433 ****
 71 H           7.008405   -1.098253    3.832003 H         1 UNL        0.0433 ****
 72 H           6.367542    0.443294    3.241992 H         1 UNL        0.0433 ****
 73 C           7.509616   -2.267576    1.350961 C         1 UNL       -0.2059 ****
 74 H           6.550157   -2.777409    1.205923 H         1 UNL        0.0403 ****
 75 H           8.037353   -2.788715    2.157938 H         1 UNL        0.0403 ****
 76 H           8.096507   -2.392064    0.433254 H         1 UNL        0.0403 ****
@<TRIPOS>BOND
    1     1     2 1
    2     1     3 1
    3     1    11 1
    4     1    56 1
    5     3     4 1
    6     3     5 1
    7     3     6 1
    8     6     7 1
    9     6    14 1
   10     7     8 1
   11     7    20 1
   12     7    49 1
   13     8     9 1
   14     8    10 1
   15     8    11 1
   16    11    12 1
   17    11    13 1
   18    14    15 1
   19    14    16 1
   20    16    17 1
   21    16    18 1
   22    16    53 1
   23    18    19 1
   24    18    20 1
   25    18    29 1
   26    20    21 1
   27    20    22 1
   28    22    23 1
   29    22    24 1
   30    22    25 1
   31    25    26 1
   32    25    27 1
   33    25    28 1
   34    28    29 1
   35    28    37 1
   36    28    39 1
   37    29    30 1
   38    29    31 1
   39    31    32 1
   40    31    33 1
   41    31    34 1
   42    34    35 1
   43    34    36 1
   44    34    37 1
   45    37    38 1
   46    37    43 1
   47    39    40 1
   48    39    41 1
   49    39    42 1
   50    43    44 1
   51    43    45 1
   52    43    58 1
   53    45    46 1
   54    45    47 1
   55    45    48 1
   56    49    50 1
   57    49    51 1
   58    49    52 1
   59    53    54 1
   60    54    55 1
   61    56    57 1
   62    58    59 1
   63    58    60 1
   64    58    61 1
   65    61    62 1
   66    61    63 1
   67    61    64 1
   68    64    65 1
   69    64    66 1
   70    64    67 1
   71    67    68 1
   72    67    69 1
   73    67    73 1
   74    69    70 1
   75    69    71 1
   76    69    72 1
   77    73    74 1
   78    73    75 1
   79    73    76 1
@<TRIPOS>SUBSTRUCTURE
      1  UNL              1 ****               0 ****  ****  


