@<TRIPOS>MOLECULE
UNL
   76    79     1     0     1
SMALL
USER_CHARGES
@<TRIPOS>ATOM
  1 C           6.415012   -0.953492   -1.248324 C         1 UNL        0.3125 ****
  2 H           6.059845   -0.963254   -2.286063 H         1 UNL        0.0833 ****
  3 C           5.974971    0.357544   -0.581413 C         1 UNL       -0.2813 ****
  4 H           6.360842    1.210110   -1.149178 H         1 UNL        0.1141 ****
  5 H           6.448494    0.399225    0.413016 H         1 UNL        0.1141 ****
  6 C           4.469862    0.465375   -0.427829 C         1 UNL       -0.1008 ****
  7 C           3.738424   -0.722610    0.206977 C         1 UNL        0.0712 ****
  8 C           4.283881   -2.038290   -0.431068 C         1 UNL       -0.0457 ****
  9 H           3.886825   -2.115995   -1.452781 H         1 UNL        0.0227 ****
 10 H           3.891287   -2.899119    0.119955 H         1 UNL        0.0227 ****
 11 C           5.815023   -2.143571   -0.501212 C         1 UNL       -0.1274 ****
 12 H           6.244893   -2.184916    0.510703 H         1 UNL        0.0475 ****
 13 H           6.103138   -3.074417   -1.002764 H         1 UNL        0.0475 ****
 14 C           3.829012    1.571546   -0.828926 C         1 UNL       -0.1968 ****
 15 H           4.391984    2.377818   -1.300408 H         1 UNL        0.1576 ****
 16 C           2.359276    1.832160   -0.676520 C         1 UNL        0.0640 ****
 17 H           1.895184    1.902322   -1.673806 H         1 UNL        0.0883 ****
 18 C           1.612684    0.791177    0.171489 C         1 UNL        0.0121 ****
 19 H           1.775038    1.064121    1.219848 H         1 UNL        0.1167 ****
 20 C           2.202129   -0.621889   -0.094406 C         1 UNL        0.0253 ****
 21 H           2.104167   -0.791707   -1.179615 H         1 UNL        0.0177 ****
 22 C           1.368310   -1.720727    0.602770 C         1 UNL       -0.0836 ****
 23 H           1.521213   -1.669681    1.686246 H         1 UNL        0.0379 ****
 24 H           1.728317   -2.707913    0.292896 H         1 UNL        0.0379 ****
 25 C          -0.143240   -1.643273    0.312862 C         1 UNL       -0.0976 ****
 26 H          -0.320840   -1.843517   -0.753797 H         1 UNL        0.0207 ****
 27 H          -0.642309   -2.444950    0.865918 H         1 UNL        0.0207 ****
 28 C          -0.726412   -0.258396    0.658508 C         1 UNL        0.0951 ****
 29 C           0.105537    0.787120   -0.140462 C         1 UNL        0.0117 ****
 30 H           0.019996    0.473538   -1.196050 H         1 UNL        0.0131 ****
 31 C          -0.699691    2.089293   -0.006277 C         1 UNL       -0.1079 ****
 32 H          -0.483031    2.800431   -0.807499 H         1 UNL        0.0455 ****
 33 H          -0.453821    2.601043    0.929762 H         1 UNL        0.0455 ****
 34 C          -2.175731    1.609225   -0.021081 C         1 UNL       -0.1391 ****
 35 H          -2.737482    2.052331    0.810094 H         1 UNL        0.0442 ****
 36 H          -2.684633    1.923305   -0.937502 H         1 UNL        0.0442 ****
 37 C          -2.161003    0.047614    0.101909 C         1 UNL        0.0328 ****
 38 H          -2.187648   -0.374115   -0.915766 H         1 UNL        0.0057 ****
 39 C          -0.677183   -0.007251    2.183353 C         1 UNL       -0.1398 ****
 40 H           0.343805   -0.006723    2.573289 H         1 UNL        0.0296 ****
 41 H          -1.123634    0.954057    2.453586 H         1 UNL        0.0296 ****
 42 H          -1.228230   -0.785822    2.721099 H         1 UNL        0.0296 ****
 43 C          -3.407490   -0.502474    0.843379 C         1 UNL        0.1104 ****
 44 H          -3.435956   -0.038538    1.841262 H         1 UNL       -0.0189 ****
 45 C          -3.383259   -2.029717    1.031105 C         1 UNL       -0.1367 ****
 46 H          -3.276020   -2.541862    0.066386 H         1 UNL        0.0276 ****
 47 H          -4.308083   -2.386085    1.494373 H         1 UNL        0.0276 ****
 48 H          -2.561640   -2.353984    1.673389 H         1 UNL        0.0276 ****
 49 C           4.029435   -0.721164    1.731440 C         1 UNL       -0.0508 ****
 50 H           3.650451   -1.629774    2.209390 H         1 UNL        0.0158 ****
 51 H           5.103023   -0.675278    1.933745 H         1 UNL        0.0158 ****
 52 H           3.571525    0.143698    2.220044 H         1 UNL        0.0158 ****
 53 O           2.134529    3.190442   -0.220338 O         1 UNL       -0.2568 ****
 54 O           2.652552    3.331092    1.135408 O         1 UNL       -0.3985 ****
 55 H           3.489267    3.794600    0.966887 H         1 UNL        0.3923 ****
 56 O           7.837769   -1.037260   -1.365122 O         1 UNL       -0.6944 ****
 57 H           8.220812   -1.064079   -0.477002 H         1 UNL        0.4082 ****
 58 C          -4.699967   -0.072566    0.104868 C         1 UNL       -0.0170 ****
 59 H          -4.653694    1.001696   -0.108642 H         1 UNL       -0.0031 ****
 60 H          -4.724283   -0.576117   -0.872550 H         1 UNL       -0.0031 ****
 61 C          -6.008785   -0.340145    0.867643 C         1 UNL        0.0048 ****
 62 H          -6.181015   -1.417422    0.973029 H         1 UNL        0.0019 ****
 63 H          -5.902944    0.047884    1.890754 H         1 UNL        0.0019 ****
 64 C          -7.250165    0.318039    0.237269 C         1 UNL       -0.0779 ****
 65 H          -7.092990    1.406043    0.210157 H         1 UNL        0.0092 ****
 66 H          -8.111385    0.152650    0.901662 H         1 UNL        0.0092 ****
 67 C          -7.639319   -0.152328   -1.180580 C         1 UNL        0.2618 ****
 68 H          -6.785629    0.028692   -1.849335 H         1 UNL       -0.0417 ****
 69 C          -7.968360   -1.652779   -1.231556 C         1 UNL       -0.2170 ****
 70 H          -8.802707   -1.891453   -0.559055 H         1 UNL        0.0433 ****
 71 H          -8.261442   -1.954816   -2.243524 H         1 UNL        0.0433 ****
 72 H          -7.115600   -2.273183   -0.937347 H         1 UNL        0.0433 ****
 73 C          -8.821217    0.676619   -1.708535 C         1 UNL       -0.2059 ****
 74 H          -9.710434    0.533569   -1.081032 H         1 UNL        0.0403 ****
 75 H          -9.086591    0.385707   -2.731393 H         1 UNL        0.0403 ****
 76 H          -8.587285    1.747444   -1.714256 H         1 UNL        0.0403 ****
@<TRIPOS>BOND
    1     1     2 1
    2     1     3 1
    3     1    11 1
    4     1    56 1
    5     3     4 1
    6     3     5 1
    7     3     6 1
    8     6     7 1
    9     6    14 1
   10     7     8 1
   11     7    20 1
   12     7    49 1
   13     8     9 1
   14     8    10 1
   15     8    11 1
   16    11    12 1
   17    11    13 1
   18    14    15 1
   19    14    16 1
   20    16    17 1
   21    16    18 1
   22    16    53 1
   23    18    19 1
   24    18    20 1
   25    18    29 1
   26    20    21 1
   27    20    22 1
   28    22    23 1
   29    22    24 1
   30    22    25 1
   31    25    26 1
   32    25    27 1
   33    25    28 1
   34    28    29 1
   35    28    37 1
   36    28    39 1
   37    29    30 1
   38    29    31 1
   39    31    32 1
   40    31    33 1
   41    31    34 1
   42    34    35 1
   43    34    36 1
   44    34    37 1
   45    37    38 1
   46    37    43 1
   47    39    40 1
   48    39    41 1
   49    39    42 1
   50    43    44 1
   51    43    45 1
   52    43    58 1
   53    45    46 1
   54    45    47 1
   55    45    48 1
   56    49    50 1
   57    49    51 1
   58    49    52 1
   59    53    54 1
   60    54    55 1
   61    56    57 1
   62    58    59 1
   63    58    60 1
   64    58    61 1
   65    61    62 1
   66    61    63 1
   67    61    64 1
   68    64    65 1
   69    64    66 1
   70    64    67 1
   71    67    68 1
   72    67    69 1
   73    67    73 1
   74    69    70 1
   75    69    71 1
   76    69    72 1
   77    73    74 1
   78    73    75 1
   79    73    76 1
@<TRIPOS>SUBSTRUCTURE
      1  UNL              1 ****               0 ****  ****  


