@<TRIPOS>MOLECULE
UNL
   76    79     1     0     1
SMALL
USER_CHARGES
@<TRIPOS>ATOM
  1 C           6.646568   -0.793223   -0.935598 C         1 UNL        0.3125 ****
  2 H           6.388540   -0.758958   -2.001150 H         1 UNL        0.0833 ****
  3 C           6.108864    0.470870   -0.249844 C         1 UNL       -0.2813 ****
  4 H           6.520253    1.360513   -0.737105 H         1 UNL        0.1141 ****
  5 H           6.487477    0.473355    0.785270 H         1 UNL        0.1141 ****
  6 C           4.593470    0.533529   -0.232517 C         1 UNL       -0.1008 ****
  7 C           3.842394   -0.702469    0.274549 C         1 UNL        0.0712 ****
  8 C           4.482119   -1.970235   -0.372910 C         1 UNL       -0.0457 ****
  9 H           4.182665   -2.005451   -1.429630 H         1 UNL        0.0227 ****
 10 H           4.065923   -2.867384    0.096958 H         1 UNL        0.0227 ****
 11 C           6.015724   -2.034271   -0.306061 C         1 UNL       -0.1274 ****
 12 H           6.352529   -2.116859    0.738043 H         1 UNL        0.0475 ****
 13 H           6.375278   -2.930938   -0.823512 H         1 UNL        0.0475 ****
 14 C           3.959997    1.641879   -0.639198 C         1 UNL       -0.1968 ****
 15 H           4.539987    2.484346   -1.017552 H         1 UNL        0.1576 ****
 16 C           2.475434    1.857657   -0.613046 C         1 UNL        0.0640 ****
 17 H           2.103242    1.963789   -1.645083 H         1 UNL        0.0883 ****
 18 C           1.685242    0.758474    0.113246 C         1 UNL        0.0121 ****
 19 H           1.743224    0.984094    1.183637 H         1 UNL        0.1167 ****
 20 C           2.337499   -0.625009   -0.162160 C         1 UNL        0.0253 ****
 21 H           2.343431   -0.744070   -1.258451 H         1 UNL        0.0177 ****
 22 C           1.475978   -1.776839    0.403548 C         1 UNL       -0.0836 ****
 23 H           1.528016   -1.774877    1.497766 H         1 UNL        0.0379 ****
 24 H           1.891581   -2.738438    0.082968 H         1 UNL        0.0379 ****
 25 C          -0.004507   -1.722930   -0.020922 C         1 UNL       -0.0976 ****
 26 H          -0.078343   -1.875525   -1.107492 H         1 UNL        0.0207 ****
 27 H          -0.528439   -2.562498    0.446270 H         1 UNL        0.0207 ****
 28 C          -0.656729   -0.371390    0.332681 C         1 UNL        0.0951 ****
 29 C           0.213652    0.732118   -0.336693 C         1 UNL        0.0117 ****
 30 H           0.234012    0.468385   -1.409037 H         1 UNL        0.0131 ****
 31 C          -0.638371    2.005692   -0.217208 C         1 UNL       -0.1079 ****
 32 H          -0.370445    2.760443   -0.960957 H         1 UNL        0.0455 ****
 33 H          -0.493921    2.476873    0.760361 H         1 UNL        0.0455 ****
 34 C          -2.092221    1.490395   -0.391024 C         1 UNL       -0.1391 ****
 35 H          -2.740674    1.878621    0.403690 H         1 UNL        0.0442 ****
 36 H          -2.523651    1.835862   -1.335441 H         1 UNL        0.0442 ****
 37 C          -2.043031   -0.074571   -0.339352 C         1 UNL        0.0328 ****
 38 H          -1.964962   -0.446785   -1.373567 H         1 UNL        0.0057 ****
 39 C          -0.754035   -0.193456    1.865475 C         1 UNL       -0.1398 ****
 40 H           0.226852   -0.185484    2.347320 H         1 UNL        0.0296 ****
 41 H          -1.252213    0.741634    2.137200 H         1 UNL        0.0296 ****
 42 H          -1.327690   -1.011321    2.313776 H         1 UNL        0.0296 ****
 43 C          -3.334501   -0.691697    0.258698 C         1 UNL        0.1104 ****
 44 H          -3.466024   -0.277485    1.270049 H         1 UNL       -0.0189 ****
 45 C          -3.280810   -2.225301    0.376640 C         1 UNL       -0.1367 ****
 46 H          -3.060811   -2.685379   -0.595082 H         1 UNL        0.0276 ****
 47 H          -4.235956   -2.629355    0.725069 H         1 UNL        0.0276 ****
 48 H          -2.518380   -2.559343    1.083795 H         1 UNL        0.0276 ****
 49 C           3.993118   -0.770584    1.817653 C         1 UNL       -0.0508 ****
 50 H           3.599623   -1.711565    2.214286 H         1 UNL        0.0158 ****
 51 H           5.041885   -0.707427    2.120555 H         1 UNL        0.0158 ****
 52 H           3.466560    0.056508    2.302446 H         1 UNL        0.0158 ****
 53 O           2.169342    3.186325   -0.118793 O         1 UNL       -0.2568 ****
 54 O           2.555688    3.274994    1.284496 O         1 UNL       -0.3985 ****
 55 H           3.388414    3.770194    1.216324 H         1 UNL        0.3923 ****
 56 O           8.075884   -0.835752   -0.923320 O         1 UNL       -0.6944 ****
 57 H           8.376377   -0.898534   -0.005737 H         1 UNL        0.4082 ****
 58 C          -4.567679   -0.260744   -0.574108 C         1 UNL       -0.0170 ****
 59 H          -4.520733    0.818274   -0.759218 H         1 UNL       -0.0031 ****
 60 H          -4.511038   -0.741098   -1.563189 H         1 UNL       -0.0031 ****
 61 C          -5.934242   -0.564523    0.061415 C         1 UNL        0.0048 ****
 62 H          -6.071552   -1.647063    0.181121 H         1 UNL        0.0019 ****
 63 H          -5.955102   -0.136813    1.072742 H         1 UNL        0.0019 ****
 64 C          -7.103910   -0.010912   -0.766723 C         1 UNL       -0.0779 ****
 65 H          -7.011638   -0.387962   -1.795503 H         1 UNL        0.0092 ****
 66 H          -7.015775    1.084186   -0.836462 H         1 UNL        0.0092 ****
 67 C          -8.511564   -0.363729   -0.244517 C         1 UNL        0.2618 ****
 68 H          -8.566292   -1.459588   -0.151665 H         1 UNL       -0.0417 ****
 69 C          -8.795650    0.241024    1.140034 C         1 UNL       -0.2170 ****
 70 H          -8.724712    1.336128    1.107171 H         1 UNL        0.0433 ****
 71 H          -9.805774   -0.015346    1.479398 H         1 UNL        0.0433 ****
 72 H          -8.092717   -0.116557    1.899011 H         1 UNL        0.0433 ****
 73 C          -9.586005    0.074004   -1.252639 C         1 UNL       -0.2059 ****
 74 H          -9.574901    1.163330   -1.386872 H         1 UNL        0.0403 ****
 75 H         -10.589244   -0.207747   -0.913000 H         1 UNL        0.0403 ****
 76 H          -9.423020   -0.383773   -2.235111 H         1 UNL        0.0403 ****
@<TRIPOS>BOND
    1     1     2 1
    2     1     3 1
    3     1    11 1
    4     1    56 1
    5     3     4 1
    6     3     5 1
    7     3     6 1
    8     6     7 1
    9     6    14 1
   10     7     8 1
   11     7    20 1
   12     7    49 1
   13     8     9 1
   14     8    10 1
   15     8    11 1
   16    11    12 1
   17    11    13 1
   18    14    15 1
   19    14    16 1
   20    16    17 1
   21    16    18 1
   22    16    53 1
   23    18    19 1
   24    18    20 1
   25    18    29 1
   26    20    21 1
   27    20    22 1
   28    22    23 1
   29    22    24 1
   30    22    25 1
   31    25    26 1
   32    25    27 1
   33    25    28 1
   34    28    29 1
   35    28    37 1
   36    28    39 1
   37    29    30 1
   38    29    31 1
   39    31    32 1
   40    31    33 1
   41    31    34 1
   42    34    35 1
   43    34    36 1
   44    34    37 1
   45    37    38 1
   46    37    43 1
   47    39    40 1
   48    39    41 1
   49    39    42 1
   50    43    44 1
   51    43    45 1
   52    43    58 1
   53    45    46 1
   54    45    47 1
   55    45    48 1
   56    49    50 1
   57    49    51 1
   58    49    52 1
   59    53    54 1
   60    54    55 1
   61    56    57 1
   62    58    59 1
   63    58    60 1
   64    58    61 1
   65    61    62 1
   66    61    63 1
   67    61    64 1
   68    64    65 1
   69    64    66 1
   70    64    67 1
   71    67    68 1
   72    67    69 1
   73    67    73 1
   74    69    70 1
   75    69    71 1
   76    69    72 1
   77    73    74 1
   78    73    75 1
   79    73    76 1
@<TRIPOS>SUBSTRUCTURE
      1  UNL              1 ****               0 ****  ****  


