@<TRIPOS>MOLECULE
UNL
   76    79     1     0     1
SMALL
USER_CHARGES
@<TRIPOS>ATOM
  1 C           5.508511   -2.354182   -0.664582 C         1 UNL        0.3125 ****
  2 H           5.182459   -2.434638   -1.708835 H         1 UNL        0.0833 ****
  3 C           5.521623   -0.874343   -0.257338 C         1 UNL       -0.2813 ****
  4 H           6.174124   -0.309400   -0.929979 H         1 UNL        0.1141 ****
  5 H           5.971050   -0.808885    0.747060 H         1 UNL        0.1141 ****
  6 C           4.134809   -0.259356   -0.233950 C         1 UNL       -0.1008 ****
  7 C           3.049349   -1.009205    0.544769 C         1 UNL        0.0712 ****
  8 C           3.128425   -2.522696    0.172065 C         1 UNL       -0.0457 ****
  9 H           2.738133   -2.646552   -0.847741 H         1 UNL        0.0227 ****
 10 H           2.466909   -3.096683    0.829545 H         1 UNL        0.0227 ****
 11 C           4.538311   -3.131163    0.224731 C         1 UNL       -0.1274 ****
 12 H           4.919486   -3.130253    1.256628 H         1 UNL        0.0475 ****
 13 H           4.505542   -4.178591   -0.096089 H         1 UNL        0.0475 ****
 14 C           3.903688    0.899967   -0.863835 C         1 UNL       -0.1968 ****
 15 H           4.708077    1.386632   -1.410839 H         1 UNL        0.1576 ****
 16 C           2.603595    1.648634   -0.857518 C         1 UNL        0.0640 ****
 17 H           2.191787    1.701193   -1.877389 H         1 UNL        0.0883 ****
 18 C           1.549642    1.084776    0.109636 C         1 UNL        0.0121 ****
 19 H           1.788954    1.482800    1.104247 H         1 UNL        0.1167 ****
 20 C           1.635662   -0.468354    0.138200 C         1 UNL        0.0253 ****
 21 H           1.483291   -0.794886   -0.903515 H         1 UNL        0.0177 ****
 22 C           0.484263   -1.080888    0.969856 C         1 UNL       -0.0836 ****
 23 H           0.641844   -0.869247    2.032829 H         1 UNL        0.0379 ****
 24 H           0.504467   -2.171620    0.872394 H         1 UNL        0.0379 ****
 25 C          -0.916356   -0.581646    0.566133 C         1 UNL       -0.0976 ****
 26 H          -1.143362   -0.924403   -0.453253 H         1 UNL        0.0207 ****
 27 H          -1.658713   -1.045395    1.226162 H         1 UNL        0.0207 ****
 28 C          -1.011188    0.954856    0.611089 C         1 UNL        0.0951 ****
 29 C           0.126511    1.508070   -0.298982 C         1 UNL        0.0117 ****
 30 H          -0.042432    1.042872   -1.284842 H         1 UNL        0.0131 ****
 31 C          -0.214062    3.002139   -0.458187 C         1 UNL       -0.1079 ****
 32 H           0.209589    3.425756   -1.374060 H         1 UNL        0.0455 ****
 33 H           0.197185    3.583777    0.372917 H         1 UNL        0.0455 ****
 34 C          -1.768686    3.033654   -0.458511 C         1 UNL       -0.1391 ****
 35 H          -2.139507    3.754500    0.277081 H         1 UNL        0.0442 ****
 36 H          -2.172237    3.350110   -1.426760 H         1 UNL        0.0442 ****
 37 C          -2.244533    1.584995   -0.124279 C         1 UNL        0.0328 ****
 38 H          -2.284803    1.053954   -1.085000 H         1 UNL        0.0057 ****
 39 C          -0.874012    1.454162    2.068165 C         1 UNL       -0.1398 ****
 40 H           0.123520    1.267234    2.473676 H         1 UNL        0.0296 ****
 41 H          -1.060440    2.527274    2.157831 H         1 UNL        0.0296 ****
 42 H          -1.585528    0.940169    2.720619 H         1 UNL        0.0296 ****
 43 C          -3.703113    1.535214    0.416694 C         1 UNL        0.1104 ****
 44 H          -4.273081    2.109641   -0.332226 H         1 UNL       -0.0189 ****
 45 C          -3.965741    2.229922    1.768409 C         1 UNL       -0.1367 ****
 46 H          -3.635849    1.620312    2.614654 H         1 UNL        0.0276 ****
 47 H          -5.041727    2.397417    1.891767 H         1 UNL        0.0276 ****
 48 H          -3.474914    3.204159    1.847553 H         1 UNL        0.0276 ****
 49 C           3.317742   -0.831620    2.063244 C         1 UNL       -0.0508 ****
 50 H           2.661827   -1.471264    2.662057 H         1 UNL        0.0158 ****
 51 H           4.346927   -1.094869    2.320762 H         1 UNL        0.0158 ****
 52 H           3.165277    0.206332    2.373675 H         1 UNL        0.0158 ****
 53 O           2.824371    3.012071   -0.415963 O         1 UNL       -0.2568 ****
 54 O           3.607007    3.692029   -1.443300 O         1 UNL       -0.3985 ****
 55 H           2.958189    4.347167   -1.748854 H         1 UNL        0.3923 ****
 56 O           6.822872   -2.918483   -0.664551 O         1 UNL       -0.6944 ****
 57 H           7.178771   -2.873736    0.234070 H         1 UNL        0.4082 ****
 58 C          -4.340995    0.124350    0.442692 C         1 UNL       -0.0170 ****
 59 H          -3.779697   -0.525090    1.127837 H         1 UNL       -0.0031 ****
 60 H          -5.338092    0.231324    0.889313 H         1 UNL       -0.0031 ****
 61 C          -4.486127   -0.572630   -0.918919 C         1 UNL        0.0048 ****
 62 H          -5.047756    0.081012   -1.600386 H         1 UNL        0.0019 ****
 63 H          -3.498845   -0.702417   -1.377357 H         1 UNL        0.0019 ****
 64 C          -5.151180   -1.960923   -0.854522 C         1 UNL       -0.0779 ****
 65 H          -4.544219   -2.607891   -0.204628 H         1 UNL        0.0092 ****
 66 H          -5.108935   -2.414543   -1.855902 H         1 UNL        0.0092 ****
 67 C          -6.614676   -2.016971   -0.366282 C         1 UNL        0.2618 ****
 68 H          -6.659600   -1.588598    0.645138 H         1 UNL       -0.0417 ****
 69 C          -7.564369   -1.207736   -1.263664 C         1 UNL       -0.2170 ****
 70 H          -7.538059   -1.581621   -2.295573 H         1 UNL        0.0433 ****
 71 H          -8.598436   -1.285502   -0.909115 H         1 UNL        0.0433 ****
 72 H          -7.304538   -0.144465   -1.288307 H         1 UNL        0.0433 ****
 73 C          -7.082392   -3.477926   -0.266061 C         1 UNL       -0.2059 ****
 74 H          -7.066893   -3.962199   -1.251002 H         1 UNL        0.0403 ****
 75 H          -8.106310   -3.542591    0.119365 H         1 UNL        0.0403 ****
 76 H          -6.435620   -4.059828    0.400681 H         1 UNL        0.0403 ****
@<TRIPOS>BOND
    1     1     2 1
    2     1     3 1
    3     1    11 1
    4     1    56 1
    5     3     4 1
    6     3     5 1
    7     3     6 1
    8     6     7 1
    9     6    14 1
   10     7     8 1
   11     7    20 1
   12     7    49 1
   13     8     9 1
   14     8    10 1
   15     8    11 1
   16    11    12 1
   17    11    13 1
   18    14    15 1
   19    14    16 1
   20    16    17 1
   21    16    18 1
   22    16    53 1
   23    18    19 1
   24    18    20 1
   25    18    29 1
   26    20    21 1
   27    20    22 1
   28    22    23 1
   29    22    24 1
   30    22    25 1
   31    25    26 1
   32    25    27 1
   33    25    28 1
   34    28    29 1
   35    28    37 1
   36    28    39 1
   37    29    30 1
   38    29    31 1
   39    31    32 1
   40    31    33 1
   41    31    34 1
   42    34    35 1
   43    34    36 1
   44    34    37 1
   45    37    38 1
   46    37    43 1
   47    39    40 1
   48    39    41 1
   49    39    42 1
   50    43    44 1
   51    43    45 1
   52    43    58 1
   53    45    46 1
   54    45    47 1
   55    45    48 1
   56    49    50 1
   57    49    51 1
   58    49    52 1
   59    53    54 1
   60    54    55 1
   61    56    57 1
   62    58    59 1
   63    58    60 1
   64    58    61 1
   65    61    62 1
   66    61    63 1
   67    61    64 1
   68    64    65 1
   69    64    66 1
   70    64    67 1
   71    67    68 1
   72    67    69 1
   73    67    73 1
   74    69    70 1
   75    69    71 1
   76    69    72 1
   77    73    74 1
   78    73    75 1
   79    73    76 1
@<TRIPOS>SUBSTRUCTURE
      1  UNL              1 ****               0 ****  ****  


