@<TRIPOS>MOLECULE
UNL
   76    79     1     0     1
SMALL
USER_CHARGES
@<TRIPOS>ATOM
  1 C          -5.225684    2.493905   -0.369455 C         1 UNL        0.3125 ****
  2 H          -4.831631    2.751352   -1.360255 H         1 UNL        0.0833 ****
  3 C          -5.302023    0.966081   -0.243311 C         1 UNL       -0.2813 ****
  4 H          -5.924373    0.557509   -1.045250 H         1 UNL        0.1141 ****
  5 H          -5.815977    0.734966    0.704060 H         1 UNL        0.1141 ****
  6 C          -3.935356    0.307196   -0.253425 C         1 UNL       -0.1008 ****
  7 C          -2.883485    0.862184    0.712233 C         1 UNL        0.0712 ****
  8 C          -2.900547    2.420080    0.621475 C         1 UNL       -0.0457 ****
  9 H          -2.442459    2.714032   -0.333217 H         1 UNL        0.0227 ****
 10 H          -2.268534    2.839671    1.411290 H         1 UNL        0.0227 ****
 11 C          -4.295142    3.059865    0.702786 C         1 UNL       -0.1274 ****
 12 H          -4.741791    2.885028    1.692817 H         1 UNL        0.0475 ****
 13 H          -4.215391    4.146293    0.582700 H         1 UNL        0.0475 ****
 14 C          -3.693605   -0.724875   -1.072351 C         1 UNL       -0.1968 ****
 15 H          -4.473508   -1.073730   -1.745525 H         1 UNL        0.1576 ****
 16 C          -2.415574   -1.508417   -1.129532 C         1 UNL        0.0640 ****
 17 H          -1.941502   -1.388309   -2.116089 H         1 UNL        0.0883 ****
 18 C          -1.411322   -1.169496   -0.015676 C         1 UNL        0.0121 ****
 19 H          -1.722598   -1.734734    0.872361 H         1 UNL        0.1167 ****
 20 C          -1.460670    0.353957    0.295764 C         1 UNL        0.0253 ****
 21 H          -1.233907    0.860653   -0.656540 H         1 UNL        0.0177 ****
 22 C          -0.349602    0.760820    1.292154 C         1 UNL       -0.0836 ****
 23 H          -0.578843    0.361918    2.286040 H         1 UNL        0.0379 ****
 24 H          -0.336931    1.850788    1.399211 H         1 UNL        0.0379 ****
 25 C           1.060982    0.295130    0.882980 C         1 UNL       -0.0976 ****
 26 H           1.358497    0.810865   -0.040872 H         1 UNL        0.0207 ****
 27 H           1.772282    0.603388    1.658170 H         1 UNL        0.0207 ****
 28 C           1.115193   -1.225824    0.647249 C         1 UNL        0.0951 ****
 29 C           0.023866   -1.560978   -0.413523 C         1 UNL        0.0117 ****
 30 H           0.266010   -0.928488   -1.284276 H         1 UNL        0.0131 ****
 31 C           0.336636   -3.011327   -0.828158 C         1 UNL       -0.1079 ****
 32 H          -0.038575   -3.243382   -1.829769 H         1 UNL        0.0455 ****
 33 H          -0.140678   -3.720949   -0.144972 H         1 UNL        0.0455 ****
 34 C           1.886846   -3.098214   -0.744882 C         1 UNL       -0.1391 ****
 35 H           2.192538   -3.955112   -0.136167 H         1 UNL        0.0442 ****
 36 H           2.342831   -3.245251   -1.730257 H         1 UNL        0.0442 ****
 37 C           2.376648   -1.754205   -0.119987 C         1 UNL        0.0328 ****
 38 H           2.492536   -1.056706   -0.960875 H         1 UNL        0.0057 ****
 39 C           0.874849   -1.979625    1.975931 C         1 UNL       -0.1398 ****
 40 H          -0.141757   -1.837148    2.351020 H         1 UNL        0.0296 ****
 41 H           1.031167   -3.056590    1.875486 H         1 UNL        0.0296 ****
 42 H           1.555307   -1.618730    2.752411 H         1 UNL        0.0296 ****
 43 C           3.798488   -1.858821    0.504435 C         1 UNL        0.1104 ****
 44 H           4.400285   -2.305209   -0.304390 H         1 UNL       -0.0189 ****
 45 C           3.958370   -2.799860    1.715828 C         1 UNL       -0.1367 ****
 46 H           3.590821   -2.345671    2.640554 H         1 UNL        0.0276 ****
 47 H           5.020037   -3.025478    1.867220 H         1 UNL        0.0276 ****
 48 H           3.439786   -3.753699    1.583355 H         1 UNL        0.0276 ****
 49 C          -3.253038    0.420066    2.153458 C         1 UNL       -0.0508 ****
 50 H          -2.619950    0.913998    2.897186 H         1 UNL        0.0158 ****
 51 H          -4.289193    0.670892    2.395050 H         1 UNL        0.0158 ****
 52 H          -3.148685   -0.662202    2.274946 H         1 UNL        0.0158 ****
 53 O          -2.697501   -2.920827   -0.961022 O         1 UNL       -0.2568 ****
 54 O          -3.429655   -3.372938   -2.139909 O         1 UNL       -0.3985 ****
 55 H          -2.778898   -3.983810   -2.523167 H         1 UNL        0.3923 ****
 56 O          -6.522736    3.096316   -0.342085 O         1 UNL       -0.6944 ****
 57 H          -6.936148    2.902231    0.510917 H         1 UNL        0.4082 ****
 58 C           4.467446   -0.501602    0.828857 C         1 UNL       -0.0170 ****
 59 H           3.889293    0.022357    1.601452 H         1 UNL       -0.0031 ****
 60 H           5.442544   -0.718819    1.287957 H         1 UNL       -0.0031 ****
 61 C           4.705236    0.439782   -0.361786 C         1 UNL        0.0048 ****
 62 H           5.246946   -0.106383   -1.148721 H         1 UNL        0.0019 ****
 63 H           3.747570    0.740931   -0.799867 H         1 UNL        0.0019 ****
 64 C           5.509544    1.690202    0.025317 C         1 UNL       -0.0779 ****
 65 H           6.440671    1.368938    0.513718 H         1 UNL        0.0092 ****
 66 H           4.951928    2.262110    0.782999 H         1 UNL        0.0092 ****
 67 C           5.872323    2.632526   -1.140564 C         1 UNL        0.2618 ****
 68 H           6.391059    2.031660   -1.903664 H         1 UNL       -0.0417 ****
 69 C           4.634215    3.262797   -1.798859 C         1 UNL       -0.2170 ****
 70 H           4.065437    3.854081   -1.069286 H         1 UNL        0.0433 ****
 71 H           4.924119    3.934270   -2.615073 H         1 UNL        0.0433 ****
 72 H           3.959642    2.509107   -2.217283 H         1 UNL        0.0433 ****
 73 C           6.843244    3.725996   -0.667218 C         1 UNL       -0.2059 ****
 74 H           6.376936    4.356777    0.100553 H         1 UNL        0.0403 ****
 75 H           7.142350    4.378580   -1.495337 H         1 UNL        0.0403 ****
 76 H           7.752837    3.293534   -0.234928 H         1 UNL        0.0403 ****
@<TRIPOS>BOND
    1     1     2 1
    2     1     3 1
    3     1    11 1
    4     1    56 1
    5     3     4 1
    6     3     5 1
    7     3     6 1
    8     6     7 1
    9     6    14 1
   10     7     8 1
   11     7    20 1
   12     7    49 1
   13     8     9 1
   14     8    10 1
   15     8    11 1
   16    11    12 1
   17    11    13 1
   18    14    15 1
   19    14    16 1
   20    16    17 1
   21    16    18 1
   22    16    53 1
   23    18    19 1
   24    18    20 1
   25    18    29 1
   26    20    21 1
   27    20    22 1
   28    22    23 1
   29    22    24 1
   30    22    25 1
   31    25    26 1
   32    25    27 1
   33    25    28 1
   34    28    29 1
   35    28    37 1
   36    28    39 1
   37    29    30 1
   38    29    31 1
   39    31    32 1
   40    31    33 1
   41    31    34 1
   42    34    35 1
   43    34    36 1
   44    34    37 1
   45    37    38 1
   46    37    43 1
   47    39    40 1
   48    39    41 1
   49    39    42 1
   50    43    44 1
   51    43    45 1
   52    43    58 1
   53    45    46 1
   54    45    47 1
   55    45    48 1
   56    49    50 1
   57    49    51 1
   58    49    52 1
   59    53    54 1
   60    54    55 1
   61    56    57 1
   62    58    59 1
   63    58    60 1
   64    58    61 1
   65    61    62 1
   66    61    63 1
   67    61    64 1
   68    64    65 1
   69    64    66 1
   70    64    67 1
   71    67    68 1
   72    67    69 1
   73    67    73 1
   74    69    70 1
   75    69    71 1
   76    69    72 1
   77    73    74 1
   78    73    75 1
   79    73    76 1
@<TRIPOS>SUBSTRUCTURE
      1  UNL              1 ****               0 ****  ****  


