@<TRIPOS>MOLECULE
UNL
   76    79     1     0     1
SMALL
USER_CHARGES
@<TRIPOS>ATOM
  1 C           6.613290   -0.874329   -0.849809 C         1 UNL        0.3125 ****
  2 H           6.383413   -0.708829   -1.909531 H         1 UNL        0.0833 ****
  3 C           6.098064    0.319460   -0.034055 C         1 UNL       -0.2813 ****
  4 H           6.546818    1.245454   -0.406254 H         1 UNL        0.1141 ****
  5 H           6.450985    0.192154    1.002462 H         1 UNL        0.1141 ****
  6 C           4.584867    0.429272   -0.044925 C         1 UNL       -0.1008 ****
  7 C           3.788586   -0.831370    0.306346 C         1 UNL        0.0712 ****
  8 C           4.400248   -2.037339   -0.472602 C         1 UNL       -0.0457 ****
  9 H           4.124386   -1.938152   -1.531726 H         1 UNL        0.0227 ****
 10 H           3.946028   -2.969231   -0.119524 H         1 UNL        0.0227 ****
 11 C           5.929303   -2.159059   -0.383305 C         1 UNL       -0.1274 ****
 12 H           6.238640   -2.374319    0.650228 H         1 UNL        0.0475 ****
 13 H           6.273692   -3.000645   -0.995051 H         1 UNL        0.0475 ****
 14 C           3.998432    1.597557   -0.337227 C         1 UNL       -0.1968 ****
 15 H           4.610727    2.460636   -0.588862 H         1 UNL        0.1576 ****
 16 C           2.521461    1.859600   -0.311221 C         1 UNL        0.0640 ****
 17 H           2.164431    2.114930   -1.321072 H         1 UNL        0.0883 ****
 18 C           1.681210    0.711352    0.271504 C         1 UNL        0.0121 ****
 19 H           1.716211    0.815491    1.363964 H         1 UNL        0.1167 ****
 20 C           2.296123   -0.656251   -0.138345 C         1 UNL        0.0253 ****
 21 H           2.314551   -0.657866   -1.240423 H         1 UNL        0.0177 ****
 22 C           1.385935   -1.827734    0.295367 C         1 UNL       -0.0836 ****
 23 H           1.414743   -1.933468    1.385274 H         1 UNL        0.0379 ****
 24 H           1.779791   -2.766280   -0.109393 H         1 UNL        0.0379 ****
 25 C          -0.082323   -1.686185   -0.149785 C         1 UNL       -0.0976 ****
 26 H          -0.136692   -1.730716   -1.247192 H         1 UNL        0.0207 ****
 27 H          -0.641779   -2.549360    0.223586 H         1 UNL        0.0207 ****
 28 C          -0.702537   -0.355066    0.320879 C         1 UNL        0.0951 ****
 29 C           0.220935    0.778351   -0.213473 C         1 UNL        0.0117 ****
 30 H           0.265473    0.619445   -1.304720 H         1 UNL        0.0131 ****
 31 C          -0.595266    2.061885    0.003826 C         1 UNL       -0.1079 ****
 32 H          -0.285075    2.869270   -0.666758 H         1 UNL        0.0455 ****
 33 H          -0.464392    2.437235    1.023704 H         1 UNL        0.0455 ****
 34 C          -2.059324    1.615328   -0.254744 C         1 UNL       -0.1391 ****
 35 H          -2.715906    1.945798    0.559043 H         1 UNL        0.0442 ****
 36 H          -2.454482    2.064958   -1.170620 H         1 UNL        0.0442 ****
 37 C          -2.058915    0.052144   -0.354856 C         1 UNL        0.0328 ****
 38 H          -1.961647   -0.220077   -1.418033 H         1 UNL        0.0057 ****
 39 C          -0.838433   -0.326117    1.860609 C         1 UNL       -0.1398 ****
 40 H           0.127251   -0.407725    2.365849 H         1 UNL        0.0296 ****
 41 H          -1.308564    0.596850    2.212788 H         1 UNL        0.0296 ****
 42 H          -1.456234   -1.159886    2.209512 H         1 UNL        0.0296 ****
 43 C          -3.385997   -0.576383    0.145600 C         1 UNL        0.1104 ****
 44 H          -3.534254   -0.258679    1.189056 H         1 UNL       -0.0189 ****
 45 C          -3.382029   -2.115054    0.112985 C         1 UNL       -0.1367 ****
 46 H          -3.148505   -2.484965   -0.893400 H         1 UNL        0.0276 ****
 47 H          -4.358514   -2.519354    0.395381 H         1 UNL        0.0276 ****
 48 H          -2.650842   -2.541911    0.802908 H         1 UNL        0.0276 ****
 49 C           3.908256   -1.082407    1.833412 C         1 UNL       -0.0508 ****
 50 H           3.486918   -2.053208    2.112651 H         1 UNL        0.0158 ****
 51 H           4.951881   -1.078932    2.158546 H         1 UNL        0.0158 ****
 52 H           3.392148   -0.304783    2.404285 H         1 UNL        0.0158 ****
 53 O           2.240096    2.998534    0.541262 O         1 UNL       -0.2568 ****
 54 O           2.787295    4.186397   -0.106664 O         1 UNL       -0.3985 ****
 55 H           1.967508    4.669514   -0.301770 H         1 UNL        0.3923 ****
 56 O           8.040053   -0.969009   -0.812575 O         1 UNL       -0.6944 ****
 57 H           8.317032   -1.110083    0.103700 H         1 UNL        0.4082 ****
 58 C          -4.580401   -0.025166   -0.672895 C         1 UNL       -0.0170 ****
 59 H          -4.494303    1.064466   -0.751806 H         1 UNL       -0.0031 ****
 60 H          -4.510308   -0.410214   -1.702021 H         1 UNL       -0.0031 ****
 61 C          -5.974123   -0.342187   -0.105450 C         1 UNL        0.0048 ****
 62 H          -6.137365   -1.425576   -0.086301 H         1 UNL        0.0019 ****
 63 H          -6.014899   -0.003587    0.938822 H         1 UNL        0.0019 ****
 64 C          -7.095408    0.328579   -0.915934 C         1 UNL       -0.0779 ****
 65 H          -7.013856    0.003022   -1.963199 H         1 UNL        0.0092 ****
 66 H          -6.922888    1.414588   -0.922966 H         1 UNL        0.0092 ****
 67 C          -8.544137    0.070864   -0.439818 C         1 UNL        0.2618 ****
 68 H          -9.191685    0.631610   -1.130118 H         1 UNL       -0.0417 ****
 69 C          -8.949302   -1.408899   -0.544457 C         1 UNL       -0.2170 ****
 70 H          -8.390820   -2.032702    0.162971 H         1 UNL        0.0433 ****
 71 H         -10.014678   -1.537759   -0.321825 H         1 UNL        0.0433 ****
 72 H          -8.768966   -1.801890   -1.551998 H         1 UNL        0.0433 ****
 73 C          -8.809846    0.617883    0.972516 C         1 UNL       -0.2059 ****
 74 H          -8.246316    0.065199    1.733070 H         1 UNL        0.0403 ****
 75 H          -9.872128    0.534950    1.229205 H         1 UNL        0.0403 ****
 76 H          -8.529101    1.674876    1.050521 H         1 UNL        0.0403 ****
@<TRIPOS>BOND
    1     1     2 1
    2     1     3 1
    3     1    11 1
    4     1    56 1
    5     3     4 1
    6     3     5 1
    7     3     6 1
    8     6     7 1
    9     6    14 1
   10     7     8 1
   11     7    20 1
   12     7    49 1
   13     8     9 1
   14     8    10 1
   15     8    11 1
   16    11    12 1
   17    11    13 1
   18    14    15 1
   19    14    16 1
   20    16    17 1
   21    16    18 1
   22    16    53 1
   23    18    19 1
   24    18    20 1
   25    18    29 1
   26    20    21 1
   27    20    22 1
   28    22    23 1
   29    22    24 1
   30    22    25 1
   31    25    26 1
   32    25    27 1
   33    25    28 1
   34    28    29 1
   35    28    37 1
   36    28    39 1
   37    29    30 1
   38    29    31 1
   39    31    32 1
   40    31    33 1
   41    31    34 1
   42    34    35 1
   43    34    36 1
   44    34    37 1
   45    37    38 1
   46    37    43 1
   47    39    40 1
   48    39    41 1
   49    39    42 1
   50    43    44 1
   51    43    45 1
   52    43    58 1
   53    45    46 1
   54    45    47 1
   55    45    48 1
   56    49    50 1
   57    49    51 1
   58    49    52 1
   59    53    54 1
   60    54    55 1
   61    56    57 1
   62    58    59 1
   63    58    60 1
   64    58    61 1
   65    61    62 1
   66    61    63 1
   67    61    64 1
   68    64    65 1
   69    64    66 1
   70    64    67 1
   71    67    68 1
   72    67    69 1
   73    67    73 1
   74    69    70 1
   75    69    71 1
   76    69    72 1
   77    73    74 1
   78    73    75 1
   79    73    76 1
@<TRIPOS>SUBSTRUCTURE
      1  UNL              1 ****               0 ****  ****  


