@<TRIPOS>MOLECULE
UNL
   76    79     1     0     1
SMALL
USER_CHARGES
@<TRIPOS>ATOM
  1 C           6.606176   -0.858412   -0.550170 C         1 UNL        0.3125 ****
  2 H           6.483587   -0.590730   -1.606839 H         1 UNL        0.0833 ****
  3 C           6.022479    0.262662    0.320725 C         1 UNL       -0.2813 ****
  4 H           6.513327    1.211450    0.083576 H         1 UNL        0.1141 ****
  5 H           6.270101    0.032816    1.370020 H         1 UNL        0.1141 ****
  6 C           4.518719    0.399335    0.172398 C         1 UNL       -0.1008 ****
  7 C           3.681198   -0.874602    0.322742 C         1 UNL        0.0712 ****
  8 C           4.357452   -2.013167   -0.502947 C         1 UNL       -0.0457 ****
  9 H           4.188645   -1.811064   -1.569871 H         1 UNL        0.0227 ****
 10 H           3.863249   -2.965982   -0.285552 H         1 UNL        0.0227 ****
 11 C           5.869116   -2.169023   -0.276346 C         1 UNL       -0.1274 ****
 12 H           6.072785   -2.485011    0.757513 H         1 UNL        0.0475 ****
 13 H           6.265680   -2.955730   -0.928212 H         1 UNL        0.0475 ****
 14 C           3.973627    1.600024   -0.063123 C         1 UNL       -0.1968 ****
 15 H           4.614838    2.472092   -0.170226 H         1 UNL        0.1576 ****
 16 C           2.503534    1.884109   -0.157301 C         1 UNL        0.0640 ****
 17 H           2.250819    2.239628   -1.168342 H         1 UNL        0.0883 ****
 18 C           1.600140    0.701017    0.227781 C         1 UNL        0.0121 ****
 19 H           1.526921    0.701537    1.323288 H         1 UNL        0.1167 ****
 20 C           2.241817   -0.632805   -0.247648 C         1 UNL        0.0253 ****
 21 H           2.369738   -0.531353   -1.337712 H         1 UNL        0.0177 ****
 22 C           1.284035   -1.824335   -0.019112 C         1 UNL       -0.0836 ****
 23 H           1.202186   -2.031819    1.053347 H         1 UNL        0.0379 ****
 24 H           1.709888   -2.727381   -0.469569 H         1 UNL        0.0379 ****
 25 C          -0.130477   -1.616405   -0.593172 C         1 UNL       -0.0976 ****
 26 H          -0.073625   -1.556670   -1.689739 H         1 UNL        0.0207 ****
 27 H          -0.733241   -2.500049   -0.361389 H         1 UNL        0.0207 ****
 28 C          -0.783839   -0.324667   -0.062406 C         1 UNL        0.0951 ****
 29 C           0.196142    0.839148   -0.390073 C         1 UNL        0.0117 ****
 30 H           0.348238    0.785947   -1.481914 H         1 UNL        0.0131 ****
 31 C          -0.630158    2.108435   -0.129341 C         1 UNL       -0.1079 ****
 32 H          -0.247433    2.973529   -0.679659 H         1 UNL        0.0455 ****
 33 H          -0.603172    2.377886    0.931263 H         1 UNL        0.0455 ****
 34 C          -2.062162    1.713334   -0.580673 C         1 UNL       -0.1391 ****
 35 H          -2.800503    1.977709    0.185471 H         1 UNL        0.0442 ****
 36 H          -2.352213    2.255104   -1.485893 H         1 UNL        0.0442 ****
 37 C          -2.061163    0.165990   -0.828805 C         1 UNL        0.0328 ****
 38 H          -1.859885   -0.007042   -1.898198 H         1 UNL        0.0057 ****
 39 C          -1.073734   -0.438529    1.452151 C         1 UNL       -0.1398 ****
 40 H          -0.163680   -0.578863    2.040806 H         1 UNL        0.0296 ****
 41 H          -1.574022    0.452973    1.841798 H         1 UNL        0.0296 ****
 42 H          -1.725255   -1.293885    1.657789 H         1 UNL        0.0296 ****
 43 C          -3.435894   -0.480604   -0.520550 C         1 UNL        0.1104 ****
 44 H          -3.673810   -0.253000    0.528985 H         1 UNL       -0.0189 ****
 45 C          -3.445163   -2.011982   -0.684238 C         1 UNL       -0.1367 ****
 46 H          -3.086287   -2.299379   -1.680363 H         1 UNL        0.0276 ****
 47 H          -4.460193   -2.406657   -0.576744 H         1 UNL        0.0276 ****
 48 H          -2.819318   -2.517881    0.055352 H         1 UNL        0.0276 ****
 49 C           3.646852   -1.269053    1.823583 C         1 UNL       -0.0508 ****
 50 H           3.191047   -2.253678    1.967426 H         1 UNL        0.0158 ****
 51 H           4.653262   -1.315288    2.247683 H         1 UNL        0.0158 ****
 52 H           3.084303   -0.538520    2.412485 H         1 UNL        0.0158 ****
 53 O           2.147639    2.942300    0.768242 O         1 UNL       -0.2568 ****
 54 O           2.766647    4.176175    0.294162 O         1 UNL       -0.3985 ****
 55 H           1.974440    4.690389    0.067232 H         1 UNL        0.3923 ****
 56 O           8.021460   -0.980862   -0.382809 O         1 UNL       -0.6944 ****
 57 H           8.205259   -1.211714    0.538663 H         1 UNL        0.4082 ****
 58 C          -4.557638    0.151746   -1.401754 C         1 UNL       -0.0170 ****
 59 H          -4.175553    1.041414   -1.912988 H         1 UNL       -0.0031 ****
 60 H          -4.824581   -0.553938   -2.201231 H         1 UNL       -0.0031 ****
 61 C          -5.838171    0.568117   -0.651643 C         1 UNL        0.0048 ****
 62 H          -5.572009    1.301137    0.124388 H         1 UNL        0.0019 ****
 63 H          -6.486329    1.098519   -1.360526 H         1 UNL        0.0019 ****
 64 C          -6.625518   -0.579553   -0.001901 C         1 UNL       -0.0779 ****
 65 H          -5.972938   -1.111031    0.703054 H         1 UNL        0.0092 ****
 66 H          -6.904857   -1.313499   -0.773785 H         1 UNL        0.0092 ****
 67 C          -7.898128   -0.150202    0.758552 C         1 UNL        0.2618 ****
 68 H          -7.605607    0.625650    1.483121 H         1 UNL       -0.0417 ****
 69 C          -8.968824    0.449496   -0.167610 C         1 UNL       -0.2170 ****
 70 H          -9.278016   -0.280879   -0.926768 H         1 UNL        0.0433 ****
 71 H          -9.861585    0.734338    0.400649 H         1 UNL        0.0433 ****
 72 H          -8.612887    1.343357   -0.689282 H         1 UNL        0.0433 ****
 73 C          -8.477523   -1.333907    1.549704 C         1 UNL       -0.2059 ****
 74 H          -8.782611   -2.143359    0.874021 H         1 UNL        0.0403 ****
 75 H          -9.359879   -1.033859    2.126394 H         1 UNL        0.0403 ****
 76 H          -7.742149   -1.745111    2.250769 H         1 UNL        0.0403 ****
@<TRIPOS>BOND
    1     1     2 1
    2     1     3 1
    3     1    11 1
    4     1    56 1
    5     3     4 1
    6     3     5 1
    7     3     6 1
    8     6     7 1
    9     6    14 1
   10     7     8 1
   11     7    20 1
   12     7    49 1
   13     8     9 1
   14     8    10 1
   15     8    11 1
   16    11    12 1
   17    11    13 1
   18    14    15 1
   19    14    16 1
   20    16    17 1
   21    16    18 1
   22    16    53 1
   23    18    19 1
   24    18    20 1
   25    18    29 1
   26    20    21 1
   27    20    22 1
   28    22    23 1
   29    22    24 1
   30    22    25 1
   31    25    26 1
   32    25    27 1
   33    25    28 1
   34    28    29 1
   35    28    37 1
   36    28    39 1
   37    29    30 1
   38    29    31 1
   39    31    32 1
   40    31    33 1
   41    31    34 1
   42    34    35 1
   43    34    36 1
   44    34    37 1
   45    37    38 1
   46    37    43 1
   47    39    40 1
   48    39    41 1
   49    39    42 1
   50    43    44 1
   51    43    45 1
   52    43    58 1
   53    45    46 1
   54    45    47 1
   55    45    48 1
   56    49    50 1
   57    49    51 1
   58    49    52 1
   59    53    54 1
   60    54    55 1
   61    56    57 1
   62    58    59 1
   63    58    60 1
   64    58    61 1
   65    61    62 1
   66    61    63 1
   67    61    64 1
   68    64    65 1
   69    64    66 1
   70    64    67 1
   71    67    68 1
   72    67    69 1
   73    67    73 1
   74    69    70 1
   75    69    71 1
   76    69    72 1
   77    73    74 1
   78    73    75 1
   79    73    76 1
@<TRIPOS>SUBSTRUCTURE
      1  UNL              1 ****               0 ****  ****  


