@<TRIPOS>MOLECULE
UNL
   75    78     1     0     1
SMALL
USER_CHARGES
@<TRIPOS>ATOM
  1 O           2.372607    2.712851   -1.174000 O         1 UNL       -0.6333 ****
  2 H           2.893990    2.226961   -1.826895 H         1 UNL        0.4072 ****
  3 O           8.039940   -0.821715   -0.465335 O         1 UNL       -0.7096 ****
  4 H           8.206727   -1.244240    0.388965 H         1 UNL        0.4158 ****
  5 C          -0.731560   -0.007947    0.198875 C         1 UNL        0.1189 ****
  6 C           0.255781    1.169127   -0.035095 C         1 UNL        0.0222 ****
  7 H           0.300320    1.302696   -1.125412 H         1 UNL        0.0244 ****
  8 C           1.698613    0.907846    0.414454 C         1 UNL       -0.0390 ****
  9 H           1.717224    0.774542    1.505865 H         1 UNL        0.0634 ****
 10 C           2.256752   -0.369102   -0.263362 C         1 UNL        0.0138 ****
 11 H           2.357771   -0.122943   -1.333566 H         1 UNL        0.0499 ****
 12 C          -2.054055    0.638904   -0.342151 C         1 UNL        0.0425 ****
 13 H          -1.961433    0.648739   -1.439892 H         1 UNL        0.0066 ****
 14 C          -0.176951   -1.205480   -0.599588 C         1 UNL       -0.0830 ****
 15 H          -0.198830   -0.953337   -1.669632 H         1 UNL        0.0128 ****
 16 H          -0.796491   -2.099672   -0.478137 H         1 UNL        0.0128 ****
 17 C           3.701499   -0.726312    0.233571 C         1 UNL        0.0850 ****
 18 C          -0.477715    2.399980    0.514705 C         1 UNL       -0.0817 ****
 19 H          -0.111180    3.327836    0.066836 H         1 UNL        0.0291 ****
 20 H          -0.338250    2.487954    1.599813 H         1 UNL        0.0291 ****
 21 C           1.266000   -1.554417   -0.181078 C         1 UNL       -0.1332 ****
 22 H           1.243051   -1.948931    0.840051 H         1 UNL        0.0567 ****
 23 H           1.622271   -2.376323   -0.812835 H         1 UNL        0.0567 ****
 24 C          -1.965163    2.121145    0.163767 C         1 UNL       -0.0887 ****
 25 H          -2.610581    2.265187    1.038429 H         1 UNL        0.0274 ****
 26 H          -2.322185    2.818173   -0.599881 H         1 UNL        0.0274 ****
 27 C           2.610960    2.118260    0.123736 C         1 UNL        0.1049 ****
 28 H           2.354326    2.922457    0.822861 H         1 UNL        0.1183 ****
 29 C          -3.420554   -0.014830   -0.011766 C         1 UNL        0.0838 ****
 30 H          -3.553065    0.040330    1.078892 H         1 UNL       -0.0154 ****
 31 C          -0.883527   -0.367220    1.695155 C         1 UNL       -0.1369 ****
 32 H           0.073045   -0.612168    2.164010 H         1 UNL        0.0250 ****
 33 H          -1.321759    0.454502    2.269560 H         1 UNL        0.0250 ****
 34 H          -1.536424   -1.237009    1.822552 H         1 UNL        0.0250 ****
 35 C           4.570373    0.536480    0.304543 C         1 UNL       -0.0651 ****
 36 C           4.351340   -1.711267   -0.787030 C         1 UNL       -0.0286 ****
 37 H           4.195278   -1.310798   -1.798435 H         1 UNL        0.0104 ****
 38 H           3.824634   -2.670830   -0.749940 H         1 UNL        0.0104 ****
 39 C           4.066907    1.781177    0.263657 C         1 UNL       -0.2962 ****
 40 H           4.747693    2.631349    0.296148 H         1 UNL        0.1677 ****
 41 C           3.676230   -1.380337    1.642016 C         1 UNL       -0.0862 ****
 42 H           3.226519   -2.377218    1.609574 H         1 UNL        0.0249 ****
 43 H           4.683276   -1.494977    2.050577 H         1 UNL        0.0249 ****
 44 H           3.108409   -0.771118    2.351690 H         1 UNL        0.0249 ****
 45 C           6.068052    0.330696    0.439117 C         1 UNL       -0.2267 ****
 46 H           6.589118    1.291069    0.376813 H         1 UNL        0.0886 ****
 47 H           6.298744   -0.089287    1.431204 H         1 UNL        0.0886 ****
 48 C           5.856065   -1.951003   -0.590601 C         1 UNL       -0.1178 ****
 49 H           6.043252   -2.458706    0.367139 H         1 UNL        0.0400 ****
 50 H           6.235769   -2.614080   -1.376183 H         1 UNL        0.0400 ****
 51 C          -4.590252    0.785439   -0.664708 C         1 UNL       -0.0131 ****
 52 H          -4.221353    1.748534   -1.031917 H         1 UNL       -0.0043 ****
 53 H          -4.936483    0.249097   -1.558546 H         1 UNL       -0.0043 ****
 54 C           6.630631   -0.633591   -0.616331 C         1 UNL        0.3343 ****
 55 H           6.526775   -0.175446   -1.607671 H         1 UNL        0.0779 ****
 56 C          -3.503745   -1.497241   -0.420042 C         1 UNL       -0.1211 ****
 57 H          -3.258490   -1.623935   -1.481916 H         1 UNL        0.0229 ****
 58 H          -4.515353   -1.886234   -0.269972 H         1 UNL        0.0229 ****
 59 H          -2.824547   -2.129626    0.157232 H         1 UNL        0.0229 ****
 60 C          -5.784807    1.086970    0.263892 C         1 UNL        0.0054 ****
 61 H          -5.405362    1.629263    1.141034 H         1 UNL        0.0025 ****
 62 H          -6.454766    1.789572   -0.248231 H         1 UNL        0.0025 ****
 63 C          -6.602215   -0.118048    0.765899 C         1 UNL       -0.0691 ****
 64 H          -7.317285    0.241592    1.520688 H         1 UNL        0.0054 ****
 65 H          -5.936160   -0.811058    1.297603 H         1 UNL        0.0054 ****
 66 C          -7.393443   -0.909104   -0.298104 C         1 UNL        0.2595 ****
 67 H          -6.692251   -1.242771   -1.076280 H         1 UNL       -0.0402 ****
 68 C          -8.475393   -0.055887   -0.980003 C         1 UNL       -0.2032 ****
 69 H          -9.196770    0.319708   -0.242528 H         1 UNL        0.0393 ****
 70 H          -9.031611   -0.646471   -1.716847 H         1 UNL        0.0393 ****
 71 H          -8.053132    0.807933   -1.503163 H         1 UNL        0.0393 ****
 72 C          -8.018145   -2.165464    0.330109 C         1 UNL       -0.2138 ****
 73 H          -8.730667   -1.894237    1.119804 H         1 UNL        0.0423 ****
 74 H          -8.559825   -2.757404   -0.416501 H         1 UNL        0.0423 ****
 75 H          -7.254369   -2.810413    0.779894 H         1 UNL        0.0423 ****
@<TRIPOS>BOND
    1     1     2 1
    2     1    27 1
    3     3     4 1
    4     3    54 1
    5     5     6 1
    6     5    12 1
    7     5    14 1
    8     5    31 1
    9     6     7 1
   10     6     8 1
   11     6    18 1
   12     8     9 1
   13     8    10 1
   14     8    27 1
   15    10    11 1
   16    10    17 1
   17    10    21 1
   18    12    13 1
   19    12    24 1
   20    12    29 1
   21    14    15 1
   22    14    16 1
   23    14    21 1
   24    17    35 1
   25    17    36 1
   26    17    41 1
   27    18    19 1
   28    18    20 1
   29    18    24 1
   30    21    22 1
   31    21    23 1
   32    24    25 1
   33    24    26 1
   34    27    28 1
   35    27    39 1
   36    29    30 1
   37    29    51 1
   38    29    56 1
   39    31    32 1
   40    31    33 1
   41    31    34 1
   42    35    39 1
   43    35    45 1
   44    36    37 1
   45    36    38 1
   46    36    48 1
   47    39    40 1
   48    41    42 1
   49    41    43 1
   50    41    44 1
   51    45    46 1
   52    45    47 1
   53    45    54 1
   54    48    49 1
   55    48    50 1
   56    48    54 1
   57    51    52 1
   58    51    53 1
   59    51    60 1
   60    54    55 1
   61    56    57 1
   62    56    58 1
   63    56    59 1
   64    60    61 1
   65    60    62 1
   66    60    63 1
   67    63    64 1
   68    63    65 1
   69    63    66 1
   70    66    67 1
   71    66    68 1
   72    66    72 1
   73    68    69 1
   74    68    70 1
   75    68    71 1
   76    72    73 1
   77    72    74 1
   78    72    75 1
@<TRIPOS>SUBSTRUCTURE
      1  UNL              1 ****               0 ****  ****  


