@<TRIPOS>MOLECULE
UNL
   75    78     1     0     1
SMALL
USER_CHARGES
@<TRIPOS>ATOM
  1 O           2.359096    2.752181   -1.069621 O         1 UNL       -0.6333 ****
  2 H           2.940330    2.318781   -1.708787 H         1 UNL        0.4072 ****
  3 O           8.138179   -0.545515   -0.172205 O         1 UNL       -0.7096 ****
  4 H           8.276458   -0.997145    0.672235 H         1 UNL        0.4158 ****
  5 C          -0.687444   -0.163367    0.004133 C         1 UNL        0.1189 ****
  6 C           0.256116    1.065130   -0.125828 C         1 UNL        0.0222 ****
  7 H           0.359128    1.242296   -1.205898 H         1 UNL        0.0244 ****
  8 C           1.680488    0.851364    0.400833 C         1 UNL       -0.0390 ****
  9 H           1.640491    0.672370    1.485178 H         1 UNL        0.0634 ****
 10 C           2.337758   -0.368612   -0.292462 C         1 UNL        0.0138 ****
 11 H           2.487162   -0.073301   -1.344423 H         1 UNL        0.0499 ****
 12 C          -2.005246    0.447183   -0.589913 C         1 UNL        0.0425 ****
 13 H          -1.846502    0.510290   -1.678277 H         1 UNL        0.0066 ****
 14 C          -0.029902   -1.301010   -0.804564 C         1 UNL       -0.0830 ****
 15 H          -0.002652   -1.007696   -1.863902 H         1 UNL        0.0128 ****
 16 H          -0.609997   -2.227817   -0.753762 H         1 UNL        0.0128 ****
 17 C           3.767559   -0.680291    0.273431 C         1 UNL        0.0850 ****
 18 C          -0.564063    2.241037    0.421165 C         1 UNL       -0.0817 ****
 19 H          -0.218064    3.199136    0.023542 H         1 UNL        0.0291 ****
 20 H          -0.487614    2.298629    1.514609 H         1 UNL        0.0291 ****
 21 C           1.401808   -1.599839   -0.314396 C         1 UNL       -0.1332 ****
 22 H           1.338928   -2.035665    0.688067 H         1 UNL        0.0567 ****
 23 H           1.832729   -2.378669   -0.954203 H         1 UNL        0.0567 ****
 24 C          -2.015817    1.906969   -0.018874 C         1 UNL       -0.0887 ****
 25 H          -2.708162    1.978751    0.828620 H         1 UNL        0.0274 ****
 26 H          -2.373493    2.617358   -0.769896 H         1 UNL        0.0274 ****
 27 C           2.549187    2.113497    0.215141 C         1 UNL        0.1049 ****
 28 H           2.213793    2.874268    0.929350 H         1 UNL        0.1183 ****
 29 C          -3.357478   -0.283441   -0.378203 C         1 UNL        0.0838 ****
 30 H          -3.558318   -0.299039    0.702356 H         1 UNL       -0.0154 ****
 31 C          -0.911494   -0.591055    1.472678 C         1 UNL       -0.1369 ****
 32 H           0.024680   -0.821241    1.987934 H         1 UNL        0.0250 ****
 33 H          -1.414373    0.188987    2.052259 H         1 UNL        0.0250 ****
 34 H          -1.536811   -1.488619    1.524527 H         1 UNL        0.0250 ****
 35 C           4.568838    0.616588    0.447741 C         1 UNL       -0.0651 ****
 36 C           4.521178   -1.588369   -0.747171 C         1 UNL       -0.0286 ****
 37 H           4.403577   -1.151112   -1.748483 H         1 UNL        0.0104 ****
 38 H           4.040237   -2.571812   -0.780997 H         1 UNL        0.0104 ****
 39 C           4.009094    1.837505    0.428475 C         1 UNL       -0.2962 ****
 40 H           4.645052    2.715688    0.536480 H         1 UNL        0.1677 ****
 41 C           3.694671   -1.395999    1.649869 C         1 UNL       -0.0862 ****
 42 H           3.296715   -2.410328    1.550479 H         1 UNL        0.0249 ****
 43 H           4.681481   -1.481606    2.111524 H         1 UNL        0.0249 ****
 44 H           3.058732   -0.845295    2.349515 H         1 UNL        0.0249 ****
 45 C           6.064596    0.473886    0.661839 C         1 UNL       -0.2267 ****
 46 H           6.541354    1.458945    0.670290 H         1 UNL        0.0886 ****
 47 H           6.258532    0.021347    1.647474 H         1 UNL        0.0886 ****
 48 C           6.022198   -1.767236   -0.472732 C         1 UNL       -0.1178 ****
 49 H           6.178969   -2.307814    0.472390 H         1 UNL        0.0400 ****
 50 H           6.477594   -2.376646   -1.261537 H         1 UNL        0.0400 ****
 51 C          -4.495596    0.517850   -1.061345 C         1 UNL       -0.0131 ****
 52 H          -4.460267    1.557319   -0.715164 H         1 UNL       -0.0043 ****
 53 H          -4.287940    0.550561   -2.141443 H         1 UNL       -0.0043 ****
 54 C           6.732242   -0.415804   -0.397894 C         1 UNL        0.3343 ****
 55 H           6.662891    0.080744   -1.373636 H         1 UNL        0.0779 ****
 56 C          -3.349862   -1.737287   -0.880443 C         1 UNL       -0.1211 ****
 57 H          -3.080409   -1.785003   -1.943248 H         1 UNL        0.0229 ****
 58 H          -4.334666   -2.201056   -0.768951 H         1 UNL        0.0229 ****
 59 H          -2.642191   -2.359893   -0.328802 H         1 UNL        0.0229 ****
 60 C          -5.935965    0.007001   -0.856796 C         1 UNL        0.0054 ****
 61 H          -6.596422    0.654252   -1.447606 H         1 UNL        0.0025 ****
 62 H          -6.045382   -0.997024   -1.283179 H         1 UNL        0.0025 ****
 63 C          -6.399762    0.008738    0.609225 C         1 UNL       -0.0691 ****
 64 H          -6.202051    1.002196    1.038312 H         1 UNL        0.0054 ****
 65 H          -5.786174   -0.696621    1.185553 H         1 UNL        0.0054 ****
 66 C          -7.886669   -0.339556    0.858567 C         1 UNL        0.2595 ****
 67 H          -8.024147   -0.308636    1.949661 H         1 UNL       -0.0402 ****
 68 C          -8.246183   -1.762251    0.398570 C         1 UNL       -0.2032 ****
 69 H          -8.192599   -1.859576   -0.691912 H         1 UNL        0.0393 ****
 70 H          -9.267005   -2.023418    0.700144 H         1 UNL        0.0393 ****
 71 H          -7.568885   -2.506025    0.834791 H         1 UNL        0.0393 ****
 72 C          -8.850565    0.695820    0.255419 C         1 UNL       -0.2138 ****
 73 H          -8.824082    0.685930   -0.840247 H         1 UNL        0.0423 ****
 74 H          -9.883328    0.487926    0.557857 H         1 UNL        0.0423 ****
 75 H          -8.603622    1.711248    0.587036 H         1 UNL        0.0423 ****
@<TRIPOS>BOND
    1     1     2 1
    2     1    27 1
    3     3     4 1
    4     3    54 1
    5     5     6 1
    6     5    12 1
    7     5    14 1
    8     5    31 1
    9     6     7 1
   10     6     8 1
   11     6    18 1
   12     8     9 1
   13     8    10 1
   14     8    27 1
   15    10    11 1
   16    10    17 1
   17    10    21 1
   18    12    13 1
   19    12    24 1
   20    12    29 1
   21    14    15 1
   22    14    16 1
   23    14    21 1
   24    17    35 1
   25    17    36 1
   26    17    41 1
   27    18    19 1
   28    18    20 1
   29    18    24 1
   30    21    22 1
   31    21    23 1
   32    24    25 1
   33    24    26 1
   34    27    28 1
   35    27    39 1
   36    29    30 1
   37    29    51 1
   38    29    56 1
   39    31    32 1
   40    31    33 1
   41    31    34 1
   42    35    39 1
   43    35    45 1
   44    36    37 1
   45    36    38 1
   46    36    48 1
   47    39    40 1
   48    41    42 1
   49    41    43 1
   50    41    44 1
   51    45    46 1
   52    45    47 1
   53    45    54 1
   54    48    49 1
   55    48    50 1
   56    48    54 1
   57    51    52 1
   58    51    53 1
   59    51    60 1
   60    54    55 1
   61    56    57 1
   62    56    58 1
   63    56    59 1
   64    60    61 1
   65    60    62 1
   66    60    63 1
   67    63    64 1
   68    63    65 1
   69    63    66 1
   70    66    67 1
   71    66    68 1
   72    66    72 1
   73    68    69 1
   74    68    70 1
   75    68    71 1
   76    72    73 1
   77    72    74 1
   78    72    75 1
@<TRIPOS>SUBSTRUCTURE
      1  UNL              1 ****               0 ****  ****  


