@<TRIPOS>MOLECULE
UNL
   75    78     1     0     1
SMALL
USER_CHARGES
@<TRIPOS>ATOM
  1 O          -1.847594   -2.651682   -1.085691 O         1 UNL       -0.6333 ****
  2 H          -2.432518   -2.289089   -1.764361 H         1 UNL        0.4072 ****
  3 O          -8.105472   -0.256831   -0.618666 O         1 UNL       -0.7096 ****
  4 H          -8.376433    0.141520    0.220421 H         1 UNL        0.4158 ****
  5 C           0.635945    0.641879    0.297361 C         1 UNL        0.1189 ****
  6 C          -0.101593   -0.706511    0.065690 C         1 UNL        0.0222 ****
  7 H          -0.087732   -0.865419   -1.022040 H         1 UNL        0.0244 ****
  8 C          -1.580278   -0.718181    0.471941 C         1 UNL       -0.0390 ****
  9 H          -1.656405   -0.568832    1.558811 H         1 UNL        0.0634 ****
 10 C          -2.351642    0.414124   -0.251971 C         1 UNL        0.0138 ****
 11 H          -2.370730    0.132573   -1.318048 H         1 UNL        0.0499 ****
 12 C           2.074163    0.249227   -0.192253 C         1 UNL        0.0425 ****
 13 H           2.018133    0.200161   -1.291383 H         1 UNL        0.0066 ****
 14 C          -0.113433    1.695753   -0.543977 C         1 UNL       -0.0830 ****
 15 H          -0.010861    1.433190   -1.606761 H         1 UNL        0.0128 ****
 16 H           0.318564    2.694677   -0.427513 H         1 UNL        0.0128 ****
 17 C          -3.852613    0.496821    0.197529 C         1 UNL        0.0850 ****
 18 C           0.835792   -1.764920    0.661946 C         1 UNL       -0.0817 ****
 19 H           0.667245   -2.752657    0.224044 H         1 UNL        0.0291 ****
 20 H           0.681912   -1.860928    1.744426 H         1 UNL        0.0291 ****
 21 C          -1.608789    1.768609   -0.172340 C         1 UNL       -0.1332 ****
 22 H          -1.692983    2.178959    0.839275 H         1 UNL        0.0567 ****
 23 H          -2.096111    2.495150   -0.832822 H         1 UNL        0.0567 ****
 24 C           2.252908   -1.212211    0.347062 C         1 UNL       -0.0887 ****
 25 H           2.883223   -1.213150    1.244584 H         1 UNL        0.0274 ****
 26 H           2.763064   -1.840391   -0.388980 H         1 UNL        0.0274 ****
 27 C          -2.235005   -2.087003    0.189325 C         1 UNL        0.1049 ****
 28 H          -1.850965   -2.812307    0.915846 H         1 UNL        0.1183 ****
 29 C           3.278297    1.163951    0.152722 C         1 UNL        0.0838 ****
 30 H           3.391248    1.170542    1.247731 H         1 UNL       -0.0154 ****
 31 C           0.672299    1.051946    1.787568 C         1 UNL       -0.1369 ****
 32 H          -0.326885    1.122985    2.224991 H         1 UNL        0.0250 ****
 33 H           1.238441    0.337925    2.393293 H         1 UNL        0.0250 ****
 34 H           1.147761    2.030723    1.910153 H         1 UNL        0.0250 ****
 35 C          -4.465425   -0.907619    0.277104 C         1 UNL       -0.0651 ****
 36 C          -4.647348    1.318840   -0.863951 C         1 UNL       -0.0286 ****
 37 H          -4.386189    0.936691   -1.860648 H         1 UNL        0.0104 ****
 38 H          -4.315716    2.362316   -0.836459 H         1 UNL        0.0104 ****
 39 C          -3.732113   -2.033008    0.281701 C         1 UNL       -0.2962 ****
 40 H          -4.238276   -2.997271    0.317903 H         1 UNL        0.1677 ****
 41 C          -3.996545    1.170011    1.589750 C         1 UNL       -0.0862 ****
 42 H          -3.746189    2.234178    1.545115 H         1 UNL        0.0249 ****
 43 H          -5.018854    1.095831    1.968703 H         1 UNL        0.0249 ****
 44 H          -3.344173    0.695126    2.328766 H         1 UNL        0.0249 ****
 45 C          -5.978259   -0.991056    0.366290 C         1 UNL       -0.2267 ****
 46 H          -6.303342   -2.034750    0.313940 H         1 UNL        0.0886 ****
 47 H          -6.315846   -0.604339    1.341161 H         1 UNL        0.0886 ****
 48 C          -6.175553    1.268504   -0.713734 C         1 UNL       -0.1178 ****
 49 H          -6.485997    1.749135    0.225786 H         1 UNL        0.0400 ****
 50 H          -6.650758    1.831000   -1.525369 H         1 UNL        0.0400 ****
 51 C           4.587681    0.580226   -0.438101 C         1 UNL       -0.0131 ****
 52 H           4.605780   -0.501383   -0.274453 H         1 UNL       -0.0043 ****
 53 H           4.575031    0.722090   -1.530120 H         1 UNL       -0.0043 ****
 54 C          -6.682226   -0.173420   -0.727369 C         1 UNL        0.3343 ****
 55 H          -6.462109   -0.622105   -1.703933 H         1 UNL        0.0779 ****
 56 C           3.087322    2.617775   -0.315891 C         1 UNL       -0.1211 ****
 57 H           2.852531    2.654692   -1.387064 H         1 UNL        0.0229 ****
 58 H           3.993894    3.209327   -0.156357 H         1 UNL        0.0229 ****
 59 H           2.280529    3.123257    0.219770 H         1 UNL        0.0229 ****
 60 C           5.881836    1.178798    0.137274 C         1 UNL        0.0054 ****
 61 H           5.874087    2.269165    0.020359 H         1 UNL        0.0025 ****
 62 H           5.910809    0.995952    1.220121 H         1 UNL        0.0025 ****
 63 C           7.172442    0.653557   -0.519410 C         1 UNL       -0.0691 ****
 64 H           8.026641    1.210221   -0.105910 H         1 UNL        0.0054 ****
 65 H           7.142273    0.899427   -1.590839 H         1 UNL        0.0054 ****
 66 C           7.469133   -0.854495   -0.374788 C         1 UNL        0.2595 ****
 67 H           6.628582   -1.415554   -0.807423 H         1 UNL       -0.0402 ****
 68 C           7.618292   -1.285093    1.093019 C         1 UNL       -0.2032 ****
 69 H           8.434034   -0.734136    1.579233 H         1 UNL        0.0393 ****
 70 H           7.850365   -2.353728    1.165631 H         1 UNL        0.0393 ****
 71 H           6.705673   -1.106969    1.670962 H         1 UNL        0.0393 ****
 72 C           8.728047   -1.224868   -1.175336 C         1 UNL       -0.2138 ****
 73 H           9.608551   -0.697861   -0.785559 H         1 UNL        0.0423 ****
 74 H           8.933308   -2.300058   -1.120048 H         1 UNL        0.0423 ****
 75 H           8.621910   -0.957598   -2.233045 H         1 UNL        0.0423 ****
@<TRIPOS>BOND
    1     1     2 1
    2     1    27 1
    3     3     4 1
    4     3    54 1
    5     5     6 1
    6     5    12 1
    7     5    14 1
    8     5    31 1
    9     6     7 1
   10     6     8 1
   11     6    18 1
   12     8     9 1
   13     8    10 1
   14     8    27 1
   15    10    11 1
   16    10    17 1
   17    10    21 1
   18    12    13 1
   19    12    24 1
   20    12    29 1
   21    14    15 1
   22    14    16 1
   23    14    21 1
   24    17    35 1
   25    17    36 1
   26    17    41 1
   27    18    19 1
   28    18    20 1
   29    18    24 1
   30    21    22 1
   31    21    23 1
   32    24    25 1
   33    24    26 1
   34    27    28 1
   35    27    39 1
   36    29    30 1
   37    29    51 1
   38    29    56 1
   39    31    32 1
   40    31    33 1
   41    31    34 1
   42    35    39 1
   43    35    45 1
   44    36    37 1
   45    36    38 1
   46    36    48 1
   47    39    40 1
   48    41    42 1
   49    41    43 1
   50    41    44 1
   51    45    46 1
   52    45    47 1
   53    45    54 1
   54    48    49 1
   55    48    50 1
   56    48    54 1
   57    51    52 1
   58    51    53 1
   59    51    60 1
   60    54    55 1
   61    56    57 1
   62    56    58 1
   63    56    59 1
   64    60    61 1
   65    60    62 1
   66    60    63 1
   67    63    64 1
   68    63    65 1
   69    63    66 1
   70    66    67 1
   71    66    68 1
   72    66    72 1
   73    68    69 1
   74    68    70 1
   75    68    71 1
   76    72    73 1
   77    72    74 1
   78    72    75 1
@<TRIPOS>SUBSTRUCTURE
      1  UNL              1 ****               0 ****  ****  


