@<TRIPOS>MOLECULE
UNL
   75    78     1     0     1
SMALL
USER_CHARGES
@<TRIPOS>ATOM
  1 O           2.029529    2.485805   -1.569788 O         1 UNL       -0.6333 ****
  2 H           2.677307    2.005871   -2.102933 H         1 UNL        0.4072 ****
  3 O           8.018971   -0.059768    0.087734 O         1 UNL       -0.7096 ****
  4 H           8.153267   -0.343849    1.002846 H         1 UNL        0.4158 ****
  5 C          -0.804629   -0.469441   -0.096873 C         1 UNL        0.1189 ****
  6 C           0.034899    0.800601   -0.410954 C         1 UNL        0.0222 ****
  7 H           0.173077    0.798282   -1.501558 H         1 UNL        0.0244 ****
  8 C           1.445702    0.813153    0.189835 C         1 UNL       -0.0390 ****
  9 H           1.369463    0.820623    1.286870 H         1 UNL        0.0634 ****
 10 C           2.237568   -0.441614   -0.256983 C         1 UNL        0.0138 ****
 11 H           2.413039   -0.317842   -1.338662 H         1 UNL        0.0499 ****
 12 C          -2.141737   -0.094397   -0.827593 C         1 UNL        0.0425 ****
 13 H          -1.939730   -0.204271   -1.904983 H         1 UNL        0.0066 ****
 14 C          -0.015090   -1.662469   -0.674605 C         1 UNL       -0.0830 ****
 15 H           0.036259   -1.552525   -1.767413 H         1 UNL        0.0128 ****
 16 H          -0.515138   -2.616723   -0.481679 H         1 UNL        0.0128 ****
 17 C           3.658938   -0.517815    0.402904 C         1 UNL        0.0850 ****
 18 C          -0.907366    1.972226   -0.104235 C         1 UNL       -0.0817 ****
 19 H          -0.627243    2.875112   -0.653878 H         1 UNL        0.0291 ****
 20 H          -0.885956    2.224729    0.963729 H         1 UNL        0.0291 ****
 21 C           1.412498   -1.739981   -0.095378 C         1 UNL       -0.1332 ****
 22 H           1.340118   -2.004191    0.964727 H         1 UNL        0.0567 ****
 23 H           1.938133   -2.572474   -0.577278 H         1 UNL        0.0567 ****
 24 C          -2.303541    1.434387   -0.521507 C         1 UNL       -0.0887 ****
 25 H          -3.036249    1.586187    0.280265 H         1 UNL        0.0274 ****
 26 H          -2.687183    1.969221   -1.395218 H         1 UNL        0.0274 ****
 27 C           2.211406    2.099148   -0.187000 C         1 UNL        0.1049 ****
 28 H           1.778293    2.937468    0.370681 H         1 UNL        0.1183 ****
 29 C          -3.434654   -0.899830   -0.532202 C         1 UNL        0.0838 ****
 30 H          -3.681626   -0.750575    0.528752 H         1 UNL       -0.0154 ****
 31 C          -1.057467   -0.658276    1.416504 C         1 UNL       -0.1369 ****
 32 H          -0.129307   -0.709181    1.991697 H         1 UNL        0.0250 ****
 33 H          -1.651095    0.159717    1.835799 H         1 UNL        0.0250 ****
 34 H          -1.605001   -1.587636    1.605926 H         1 UNL        0.0250 ****
 35 C           4.337602    0.858005    0.372136 C         1 UNL       -0.0651 ****
 36 C           4.536341   -1.515464   -0.415041 C         1 UNL       -0.0286 ****
 37 H           4.431593   -1.271099   -1.481334 H         1 UNL        0.0104 ****
 38 H           4.142993   -2.530021   -0.290388 H         1 UNL        0.0104 ****
 39 C           3.677532    2.000224    0.119156 C         1 UNL       -0.2962 ****
 40 H           4.230382    2.938781    0.091413 H         1 UNL        0.1677 ****
 41 C           3.578870   -0.988630    1.880808 C         1 UNL       -0.0862 ****
 42 H           3.273962   -2.037237    1.948365 H         1 UNL        0.0249 ****
 43 H           4.545183   -0.901867    2.383762 H         1 UNL        0.0249 ****
 44 H           2.864464   -0.386558    2.450282 H         1 UNL        0.0249 ****
 45 C           5.827787    0.893274    0.657597 C         1 UNL       -0.2267 ****
 46 H           6.218042    1.904602    0.507157 H         1 UNL        0.0886 ****
 47 H           6.010928    0.638758    1.713776 H         1 UNL        0.0886 ****
 48 C           6.031703   -1.504917   -0.062748 C         1 UNL       -0.1178 ****
 49 H           6.186780   -1.856557    0.967971 H         1 UNL        0.0400 ****
 50 H           6.575573   -2.197314   -0.715258 H         1 UNL        0.0400 ****
 51 C          -4.606529   -0.334987   -1.375736 C         1 UNL       -0.0131 ****
 52 H          -4.673436    0.746470   -1.217325 H         1 UNL       -0.0043 ****
 53 H          -4.356037   -0.465339   -2.439193 H         1 UNL       -0.0043 ****
 54 C           6.619988   -0.101394   -0.204625 C         1 UNL        0.3343 ****
 55 H           6.557060    0.209710   -1.254711 H         1 UNL        0.0779 ****
 56 C          -3.278872   -2.411096   -0.773227 C         1 UNL       -0.1211 ****
 57 H          -2.962415   -2.614489   -1.804221 H         1 UNL        0.0229 ****
 58 H          -4.222533   -2.939456   -0.607508 H         1 UNL        0.0229 ****
 59 H          -2.542471   -2.860633   -0.103705 H         1 UNL        0.0229 ****
 60 C          -5.999901   -0.949674   -1.133447 C         1 UNL        0.0054 ****
 61 H          -6.703926   -0.464727   -1.821712 H         1 UNL        0.0025 ****
 62 H          -5.997138   -2.007105   -1.424938 H         1 UNL        0.0025 ****
 63 C          -6.542557   -0.850368    0.304903 C         1 UNL       -0.0691 ****
 64 H          -5.890501   -1.423250    0.978220 H         1 UNL        0.0054 ****
 65 H          -7.520462   -1.353319    0.339428 H         1 UNL        0.0054 ****
 66 C          -6.711857    0.570127    0.884314 C         1 UNL        0.2595 ****
 67 H          -5.733298    1.070978    0.860694 H         1 UNL       -0.0402 ****
 68 C          -7.154319    0.494386    2.354541 C         1 UNL       -0.2032 ****
 69 H          -8.133376    0.006130    2.443417 H         1 UNL        0.0393 ****
 70 H          -7.240453    1.493473    2.796895 H         1 UNL        0.0393 ****
 71 H          -6.441161   -0.079314    2.957765 H         1 UNL        0.0393 ****
 72 C          -7.696130    1.424169    0.069237 C         1 UNL       -0.2138 ****
 73 H          -8.687909    0.954170    0.040865 H         1 UNL        0.0423 ****
 74 H          -7.813064    2.418574    0.514874 H         1 UNL        0.0423 ****
 75 H          -7.364305    1.564329   -0.964533 H         1 UNL        0.0423 ****
@<TRIPOS>BOND
    1     1     2 1
    2     1    27 1
    3     3     4 1
    4     3    54 1
    5     5     6 1
    6     5    12 1
    7     5    14 1
    8     5    31 1
    9     6     7 1
   10     6     8 1
   11     6    18 1
   12     8     9 1
   13     8    10 1
   14     8    27 1
   15    10    11 1
   16    10    17 1
   17    10    21 1
   18    12    13 1
   19    12    24 1
   20    12    29 1
   21    14    15 1
   22    14    16 1
   23    14    21 1
   24    17    35 1
   25    17    36 1
   26    17    41 1
   27    18    19 1
   28    18    20 1
   29    18    24 1
   30    21    22 1
   31    21    23 1
   32    24    25 1
   33    24    26 1
   34    27    28 1
   35    27    39 1
   36    29    30 1
   37    29    51 1
   38    29    56 1
   39    31    32 1
   40    31    33 1
   41    31    34 1
   42    35    39 1
   43    35    45 1
   44    36    37 1
   45    36    38 1
   46    36    48 1
   47    39    40 1
   48    41    42 1
   49    41    43 1
   50    41    44 1
   51    45    46 1
   52    45    47 1
   53    45    54 1
   54    48    49 1
   55    48    50 1
   56    48    54 1
   57    51    52 1
   58    51    53 1
   59    51    60 1
   60    54    55 1
   61    56    57 1
   62    56    58 1
   63    56    59 1
   64    60    61 1
   65    60    62 1
   66    60    63 1
   67    63    64 1
   68    63    65 1
   69    63    66 1
   70    66    67 1
   71    66    68 1
   72    66    72 1
   73    68    69 1
   74    68    70 1
   75    68    71 1
   76    72    73 1
   77    72    74 1
   78    72    75 1
@<TRIPOS>SUBSTRUCTURE
      1  UNL              1 ****               0 ****  ****  


