@<TRIPOS>MOLECULE
UNL
   75    78     1     0     1
SMALL
USER_CHARGES
@<TRIPOS>ATOM
  1 O          -2.473845   -2.837353    1.058178 O         1 UNL       -0.6333 ****
  2 H          -3.138791   -2.853099    0.356923 H         1 UNL        0.4072 ****
  3 O          -7.754451    1.163851   -0.044051 O         1 UNL       -0.7096 ****
  4 H          -7.701698    2.079199    0.265027 H         1 UNL        0.4158 ****
  5 C           0.883153   -0.538648   -0.464647 C         1 UNL        0.1189 ****
  6 C          -0.128253   -1.358066    0.376052 C         1 UNL        0.0222 ****
  7 H          -0.448140   -2.186234   -0.271640 H         1 UNL        0.0244 ****
  8 C          -1.409705   -0.600999    0.741871 C         1 UNL       -0.0390 ****
  9 H          -1.155902    0.247751    1.393232 H         1 UNL        0.0634 ****
 10 C          -2.104841   -0.072685   -0.541922 C         1 UNL        0.0138 ****
 11 H          -2.471922   -0.967618   -1.071382 H         1 UNL        0.0499 ****
 12 C           2.015137   -1.602983   -0.611484 C         1 UNL        0.0425 ****
 13 H           1.577890   -2.367055   -1.270397 H         1 UNL        0.0066 ****
 14 C           0.178718   -0.154964   -1.777502 C         1 UNL       -0.0830 ****
 15 H          -0.054903   -1.074128   -2.333802 H         1 UNL        0.0128 ****
 16 H           0.833679    0.445049   -2.423647 H         1 UNL        0.0128 ****
 17 C          -3.378192    0.785611   -0.218058 C         1 UNL        0.0850 ****
 18 C           0.725120   -1.995071    1.488383 C         1 UNL       -0.0817 ****
 19 H           0.272560   -2.916235    1.865662 H         1 UNL        0.0291 ****
 20 H           0.830309   -1.315252    2.343658 H         1 UNL        0.0291 ****
 21 C          -1.122045    0.631499   -1.512678 C         1 UNL       -0.1332 ****
 22 H          -0.857101    1.618811   -1.121819 H         1 UNL        0.0567 ****
 23 H          -1.623021    0.812800   -2.470441 H         1 UNL        0.0567 ****
 24 C           2.107744   -2.245836    0.808348 C         1 UNL       -0.0887 ****
 25 H           2.911547   -1.796640    1.398516 H         1 UNL        0.0274 ****
 26 H           2.334887   -3.314696    0.740472 H         1 UNL        0.0274 ****
 27 C          -2.379063   -1.482186    1.557300 C         1 UNL        0.1049 ****
 28 H          -1.965860   -1.610546    2.564476 H         1 UNL        0.1183 ****
 29 C           3.349756   -1.187093   -1.295587 C         1 UNL        0.0838 ****
 30 H           3.096041   -0.415420   -2.038940 H         1 UNL       -0.0154 ****
 31 C           1.380803    0.729090    0.264108 C         1 UNL       -0.1369 ****
 32 H           0.566236    1.420510    0.494802 H         1 UNL        0.0250 ****
 33 H           1.876362    0.493647    1.210138 H         1 UNL        0.0250 ****
 34 H           2.097270    1.274185   -0.360089 H         1 UNL        0.0250 ****
 35 C          -4.216332    0.108644    0.874829 C         1 UNL       -0.0651 ****
 36 C          -4.249450    0.893490   -1.507904 C         1 UNL       -0.0286 ****
 37 H          -4.351411   -0.112163   -1.939150 H         1 UNL        0.0104 ****
 38 H          -3.720256    1.497049   -2.252968 H         1 UNL        0.0104 ****
 39 C          -3.751959   -0.883278    1.652550 C         1 UNL       -0.2962 ****
 40 H          -4.412947   -1.331291    2.393948 H         1 UNL        0.1677 ****
 41 C          -2.998844    2.209575    0.272757 C         1 UNL       -0.0862 ****
 42 H          -2.562330    2.805890   -0.534031 H         1 UNL        0.0249 ****
 43 H          -3.872357    2.754863    0.638619 H         1 UNL        0.0249 ****
 44 H          -2.278812    2.166219    1.095425 H         1 UNL        0.0249 ****
 45 C          -5.632475    0.619546    1.067354 C         1 UNL       -0.2267 ****
 46 H          -6.162835   -0.001504    1.795854 H         1 UNL        0.0886 ****
 47 H          -5.607360    1.639922    1.482132 H         1 UNL        0.0886 ****
 48 C          -5.656962    1.471585   -1.295440 C         1 UNL       -0.1178 ****
 49 H          -5.597034    2.521590   -0.973075 H         1 UNL        0.0400 ****
 50 H          -6.211352    1.465119   -2.240735 H         1 UNL        0.0400 ****
 51 C           4.427276   -0.584021   -0.360776 C         1 UNL       -0.0131 ****
 52 H           3.956251    0.025248    0.415108 H         1 UNL       -0.0043 ****
 53 H           4.941782   -1.400136    0.167264 H         1 UNL       -0.0043 ****
 54 C          -6.427603    0.671005   -0.246125 C         1 UNL        0.3343 ****
 55 H          -6.575411   -0.352405   -0.612494 H         1 UNL        0.0779 ****
 56 C           3.929878   -2.387459   -2.071880 C         1 UNL       -0.1211 ****
 57 H           4.127942   -3.228071   -1.395264 H         1 UNL        0.0229 ****
 58 H           4.871318   -2.137204   -2.571609 H         1 UNL        0.0229 ****
 59 H           3.231753   -2.736695   -2.840709 H         1 UNL        0.0229 ****
 60 C           5.471749    0.273035   -1.096435 C         1 UNL        0.0054 ****
 61 H           5.881284   -0.293158   -1.942339 H         1 UNL        0.0025 ****
 62 H           4.972471    1.145857   -1.538952 H         1 UNL        0.0025 ****
 63 C           6.655479    0.729228   -0.223937 C         1 UNL       -0.0691 ****
 64 H           7.382853    1.251065   -0.863576 H         1 UNL        0.0054 ****
 65 H           7.172463   -0.164593    0.154239 H         1 UNL        0.0054 ****
 66 C           6.327568    1.644953    0.974694 C         1 UNL        0.2595 ****
 67 H           5.608573    1.122376    1.621778 H         1 UNL       -0.0402 ****
 68 C           5.691512    2.974831    0.539693 C         1 UNL       -0.2032 ****
 69 H           6.364996    3.527973   -0.127968 H         1 UNL        0.0393 ****
 70 H           5.486497    3.612955    1.406852 H         1 UNL        0.0393 ****
 71 H           4.745172    2.826734    0.009513 H         1 UNL        0.0393 ****
 72 C           7.593671    1.901188    1.807850 C         1 UNL       -0.2138 ****
 73 H           8.352908    2.426307    1.213942 H         1 UNL        0.0423 ****
 74 H           7.374373    2.518474    2.686573 H         1 UNL        0.0423 ****
 75 H           8.037348    0.962603    2.159386 H         1 UNL        0.0423 ****
@<TRIPOS>BOND
    1     1     2 1
    2     1    27 1
    3     3     4 1
    4     3    54 1
    5     5     6 1
    6     5    12 1
    7     5    14 1
    8     5    31 1
    9     6     7 1
   10     6     8 1
   11     6    18 1
   12     8     9 1
   13     8    10 1
   14     8    27 1
   15    10    11 1
   16    10    17 1
   17    10    21 1
   18    12    13 1
   19    12    24 1
   20    12    29 1
   21    14    15 1
   22    14    16 1
   23    14    21 1
   24    17    35 1
   25    17    36 1
   26    17    41 1
   27    18    19 1
   28    18    20 1
   29    18    24 1
   30    21    22 1
   31    21    23 1
   32    24    25 1
   33    24    26 1
   34    27    28 1
   35    27    39 1
   36    29    30 1
   37    29    51 1
   38    29    56 1
   39    31    32 1
   40    31    33 1
   41    31    34 1
   42    35    39 1
   43    35    45 1
   44    36    37 1
   45    36    38 1
   46    36    48 1
   47    39    40 1
   48    41    42 1
   49    41    43 1
   50    41    44 1
   51    45    46 1
   52    45    47 1
   53    45    54 1
   54    48    49 1
   55    48    50 1
   56    48    54 1
   57    51    52 1
   58    51    53 1
   59    51    60 1
   60    54    55 1
   61    56    57 1
   62    56    58 1
   63    56    59 1
   64    60    61 1
   65    60    62 1
   66    60    63 1
   67    63    64 1
   68    63    65 1
   69    63    66 1
   70    66    67 1
   71    66    68 1
   72    66    72 1
   73    68    69 1
   74    68    70 1
   75    68    71 1
   76    72    73 1
   77    72    74 1
   78    72    75 1
@<TRIPOS>SUBSTRUCTURE
      1  UNL              1 ****               0 ****  ****  


