@<TRIPOS>MOLECULE
UNL
   75    78     1     0     1
SMALL
USER_CHARGES
@<TRIPOS>ATOM
  1 O          -2.269410   -2.628944   -1.276383 O         1 UNL       -0.6333 ****
  2 H          -2.820076   -2.154043   -1.913151 H         1 UNL        0.4072 ****
  3 O          -8.203301    0.413931   -0.482583 O         1 UNL       -0.7096 ****
  4 H          -8.411113    0.781748    0.387869 H         1 UNL        0.4158 ****
  5 C           0.598960    0.260701    0.260574 C         1 UNL        0.1189 ****
  6 C          -0.290727   -0.977116   -0.043116 C         1 UNL        0.0222 ****
  7 H          -0.314884   -1.059080   -1.139157 H         1 UNL        0.0244 ****
  8 C          -1.753508   -0.851587    0.400206 C         1 UNL       -0.0390 ****
  9 H          -1.791353   -0.770731    1.496255 H         1 UNL        0.0634 ****
 10 C          -2.404811    0.407487   -0.225666 C         1 UNL        0.0138 ****
 11 H          -2.476029    0.204181   -1.307222 H         1 UNL        0.0499 ****
 12 C           1.974701   -0.255730   -0.289993 C         1 UNL        0.0425 ****
 13 H           1.893613   -0.222876   -1.388134 H         1 UNL        0.0066 ****
 14 C          -0.040793    1.447359   -0.489623 C         1 UNL       -0.0830 ****
 15 H           0.012814    1.248907   -1.569760 H         1 UNL        0.0128 ****
 16 H           0.503269    2.381451   -0.318054 H         1 UNL        0.0128 ****
 17 C          -3.877729    0.626987    0.268133 C         1 UNL        0.0850 ****
 18 C           0.530706   -2.173749    0.454819 C         1 UNL       -0.0817 ****
 19 H           0.244756   -3.101964   -0.047611 H         1 UNL        0.0291 ****
 20 H           0.383707   -2.330646    1.531152 H         1 UNL        0.0291 ****
 21 C          -1.511308    1.661412   -0.076141 C         1 UNL       -0.1332 ****
 22 H          -1.530123    2.008648    0.962096 H         1 UNL        0.0567 ****
 23 H          -1.924710    2.481463   -0.674670 H         1 UNL        0.0567 ****
 24 C           1.996211   -1.761274    0.146776 C         1 UNL       -0.0887 ****
 25 H           2.634412   -1.892630    1.029011 H         1 UNL        0.0274 ****
 26 H           2.424135   -2.389794   -0.639616 H         1 UNL        0.0274 ****
 27 C          -2.564987   -2.115139    0.043903 C         1 UNL        0.1049 ****
 28 H          -2.251918   -2.928186    0.708960 H         1 UNL        0.1183 ****
 29 C           3.282225    0.490810    0.083286 C         1 UNL        0.0838 ****
 30 H           3.416161    0.408684    1.172916 H         1 UNL       -0.0154 ****
 31 C           0.707450    0.559852    1.773491 C         1 UNL       -0.1369 ****
 32 H          -0.269001    0.716143    2.239348 H         1 UNL        0.0250 ****
 33 H           1.195900   -0.255126    2.316186 H         1 UNL        0.0250 ****
 34 H           1.296687    1.465984    1.949170 H         1 UNL        0.0250 ****
 35 C          -4.644771   -0.701889    0.270848 C         1 UNL       -0.0651 ****
 36 C          -4.593569    1.604025   -0.715218 C         1 UNL       -0.0286 ****
 37 H          -4.396871    1.264171   -1.741610 H         1 UNL        0.0104 ****
 38 H          -4.144654    2.599228   -0.627789 H         1 UNL        0.0104 ****
 39 C          -4.044245   -1.900028    0.180443 C         1 UNL       -0.2962 ****
 40 H          -4.656031   -2.801589    0.165632 H         1 UNL        0.1677 ****
 41 C          -3.917483    1.215242    1.705004 C         1 UNL       -0.0862 ****
 42 H          -3.547378    2.244681    1.723942 H         1 UNL        0.0249 ****
 43 H          -4.934250    1.231971    2.105206 H         1 UNL        0.0249 ****
 44 H          -3.310445    0.619922    2.393675 H         1 UNL        0.0249 ****
 45 C          -6.155314   -0.620936    0.394455 C         1 UNL       -0.2267 ****
 46 H          -6.598007   -1.615390    0.281264 H         1 UNL        0.0886 ****
 47 H          -6.428433   -0.267268    1.401495 H         1 UNL        0.0886 ****
 48 C          -6.114308    1.715670   -0.527719 C         1 UNL       -0.1178 ****
 49 H          -6.349917    2.162279    0.449574 H         1 UNL        0.0400 ****
 50 H          -6.537793    2.382559   -1.287259 H         1 UNL        0.0400 ****
 51 C           4.500138   -0.200806   -0.578746 C         1 UNL       -0.0131 ****
 52 H           4.435516   -1.282377   -0.414824 H         1 UNL       -0.0043 ****
 53 H           4.438915   -0.055294   -1.668387 H         1 UNL       -0.0043 ****
 54 C          -6.782137    0.344171   -0.623349 C         1 UNL        0.3343 ****
 55 H          -6.632965   -0.058046   -1.633005 H         1 UNL        0.0779 ****
 56 C           3.253851    1.986016   -0.280090 C         1 UNL       -0.1211 ****
 57 H           3.037306    2.125804   -1.346787 H         1 UNL        0.0229 ****
 58 H           4.216552    2.462665   -0.072851 H         1 UNL        0.0229 ****
 59 H           2.499383    2.534989    0.287714 H         1 UNL        0.0229 ****
 60 C           5.878614    0.264814   -0.080791 C         1 UNL        0.0054 ****
 61 H           6.022648    1.327746   -0.305024 H         1 UNL        0.0025 ****
 62 H           5.908578    0.171517    1.013443 H         1 UNL        0.0025 ****
 63 C           7.024260   -0.548410   -0.705528 C         1 UNL       -0.0691 ****
 64 H           6.952162   -0.471684   -1.800203 H         1 UNL        0.0054 ****
 65 H           6.872080   -1.610936   -0.466755 H         1 UNL        0.0054 ****
 66 C           8.460774   -0.158110   -0.286139 C         1 UNL        0.2595 ****
 67 H           9.128815   -0.847768   -0.823167 H         1 UNL       -0.0402 ****
 68 C           8.715222   -0.362169    1.216595 C         1 UNL       -0.2032 ****
 69 H           8.129163    0.336922    1.824300 H         1 UNL        0.0393 ****
 70 H           9.771620   -0.199189    1.458981 H         1 UNL        0.0393 ****
 71 H           8.453541   -1.379368    1.531211 H         1 UNL        0.0393 ****
 72 C           8.840517    1.266939   -0.721915 C         1 UNL       -0.2138 ****
 73 H           8.260290    2.023854   -0.181619 H         1 UNL        0.0423 ****
 74 H           9.899988    1.465633   -0.523617 H         1 UNL        0.0423 ****
 75 H           8.667992    1.415669   -1.794395 H         1 UNL        0.0423 ****
@<TRIPOS>BOND
    1     1     2 1
    2     1    27 1
    3     3     4 1
    4     3    54 1
    5     5     6 1
    6     5    12 1
    7     5    14 1
    8     5    31 1
    9     6     7 1
   10     6     8 1
   11     6    18 1
   12     8     9 1
   13     8    10 1
   14     8    27 1
   15    10    11 1
   16    10    17 1
   17    10    21 1
   18    12    13 1
   19    12    24 1
   20    12    29 1
   21    14    15 1
   22    14    16 1
   23    14    21 1
   24    17    35 1
   25    17    36 1
   26    17    41 1
   27    18    19 1
   28    18    20 1
   29    18    24 1
   30    21    22 1
   31    21    23 1
   32    24    25 1
   33    24    26 1
   34    27    28 1
   35    27    39 1
   36    29    30 1
   37    29    51 1
   38    29    56 1
   39    31    32 1
   40    31    33 1
   41    31    34 1
   42    35    39 1
   43    35    45 1
   44    36    37 1
   45    36    38 1
   46    36    48 1
   47    39    40 1
   48    41    42 1
   49    41    43 1
   50    41    44 1
   51    45    46 1
   52    45    47 1
   53    45    54 1
   54    48    49 1
   55    48    50 1
   56    48    54 1
   57    51    52 1
   58    51    53 1
   59    51    60 1
   60    54    55 1
   61    56    57 1
   62    56    58 1
   63    56    59 1
   64    60    61 1
   65    60    62 1
   66    60    63 1
   67    63    64 1
   68    63    65 1
   69    63    66 1
   70    66    67 1
   71    66    68 1
   72    66    72 1
   73    68    69 1
   74    68    70 1
   75    68    71 1
   76    72    73 1
   77    72    74 1
   78    72    75 1
@<TRIPOS>SUBSTRUCTURE
      1  UNL              1 ****               0 ****  ****  


