@<TRIPOS>MOLECULE
UNL
   75    78     1     0     1
SMALL
USER_CHARGES
@<TRIPOS>ATOM
  1 O          -2.414402   -2.772945   -1.020146 O         1 UNL       -0.6333 ****
  2 H          -3.014955   -2.346319   -1.645890 H         1 UNL        0.4072 ****
  3 O          -8.106659    0.630099    0.032830 O         1 UNL       -0.7096 ****
  4 H          -8.203134    1.104671    0.870468 H         1 UNL        0.4158 ****
  5 C           0.711004    0.124667   -0.142891 C         1 UNL        0.1189 ****
  6 C          -0.251152   -1.094182   -0.202917 C         1 UNL        0.0222 ****
  7 H          -0.399032   -1.299684   -1.272734 H         1 UNL        0.0244 ****
  8 C          -1.650529   -0.847120    0.373951 C         1 UNL       -0.0390 ****
  9 H          -1.564641   -0.642136    1.450891 H         1 UNL        0.0634 ****
 10 C          -2.319077    0.364999   -0.322806 C         1 UNL        0.0138 ****
 11 H          -2.515784    0.045821   -1.359903 H         1 UNL        0.0499 ****
 12 C           1.996505   -0.515941   -0.773201 C         1 UNL        0.0425 ****
 13 H           1.796678   -0.600579   -1.853329 H         1 UNL        0.0066 ****
 14 C           0.037720    1.250994   -0.953638 C         1 UNL       -0.0830 ****
 15 H          -0.036217    0.931340   -2.003104 H         1 UNL        0.0128 ****
 16 H           0.633462    2.169329   -0.949564 H         1 UNL        0.0128 ****
 17 C          -3.719839    0.711169    0.293439 C         1 UNL        0.0850 ****
 18 C           0.577425   -2.264333    0.344574 C         1 UNL       -0.0817 ****
 19 H           0.202844   -3.229676   -0.007033 H         1 UNL        0.0291 ****
 20 H           0.548333   -2.286784    1.441514 H         1 UNL        0.0291 ****
 21 C          -1.368916    1.582511   -0.414796 C         1 UNL       -0.1332 ****
 22 H          -1.260051    2.043669    0.572284 H         1 UNL        0.0567 ****
 23 H          -1.815562    2.350082   -1.057395 H         1 UNL        0.0567 ****
 24 C           2.012210   -1.963643   -0.169672 C         1 UNL       -0.0887 ****
 25 H           2.744680   -2.030107    0.643695 H         1 UNL        0.0274 ****
 26 H           2.318709   -2.697985   -0.920195 H         1 UNL        0.0274 ****
 27 C          -2.542920   -2.100629    0.255022 C         1 UNL        0.1049 ****
 28 H          -2.188719   -2.848676    0.973595 H         1 UNL        0.1183 ****
 29 C           3.363225    0.200094   -0.623158 C         1 UNL        0.0838 ****
 30 H           3.603436    0.222894    0.450174 H         1 UNL       -0.0154 ****
 31 C           0.996927    0.584852    1.305377 C         1 UNL       -0.1369 ****
 32 H           0.083568    0.834597    1.851555 H         1 UNL        0.0250 ****
 33 H           1.516254   -0.185603    1.883235 H         1 UNL        0.0250 ****
 34 H           1.630111    1.478138    1.312138 H         1 UNL        0.0250 ****
 35 C          -4.530783   -0.569238    0.533027 C         1 UNL       -0.0651 ****
 36 C          -4.502892    1.604769   -0.717678 C         1 UNL       -0.0286 ****
 37 H          -4.433380    1.141130   -1.711595 H         1 UNL        0.0104 ****
 38 H          -4.010289    2.579820   -0.796369 H         1 UNL        0.0104 ****
 39 C          -3.988931   -1.798325    0.521031 C         1 UNL       -0.2962 ****
 40 H          -4.631717   -2.664266    0.676838 H         1 UNL        0.1677 ****
 41 C          -3.579254    1.459386    1.647245 C         1 UNL       -0.0862 ****
 42 H          -3.172643    2.465209    1.505606 H         1 UNL        0.0249 ****
 43 H          -4.544101    1.570484    2.148211 H         1 UNL        0.0249 ****
 44 H          -2.921262    0.917061    2.332930 H         1 UNL        0.0249 ****
 45 C          -6.014281   -0.399607    0.804906 C         1 UNL       -0.2267 ****
 46 H          -6.503639   -1.377117    0.857130 H         1 UNL        0.0886 ****
 47 H          -6.160974    0.078974    1.786335 H         1 UNL        0.0886 ****
 48 C          -5.988418    1.812621   -0.385638 C         1 UNL       -0.1178 ****
 49 H          -6.097821    2.378269    0.551458 H         1 UNL        0.0400 ****
 50 H          -6.467989    2.409431   -1.169737 H         1 UNL        0.0400 ****
 51 C           4.493577   -0.604029   -1.336459 C         1 UNL       -0.0131 ****
 52 H           4.135585   -1.607374   -1.588687 H         1 UNL       -0.0043 ****
 53 H           4.722612   -0.122590   -2.298067 H         1 UNL       -0.0043 ****
 54 C          -6.713362    0.474123   -0.247829 C         1 UNL        0.3343 ****
 55 H          -6.691810   -0.046794   -1.213032 H         1 UNL        0.0779 ****
 56 C           3.352201    1.652750   -1.134847 C         1 UNL       -0.1211 ****
 57 H           2.989809    1.697764   -2.169420 H         1 UNL        0.0229 ****
 58 H           4.360768    2.076745   -1.123277 H         1 UNL        0.0229 ****
 59 H           2.717689    2.305644   -0.530001 H         1 UNL        0.0229 ****
 60 C           5.797045   -0.773319   -0.531783 C         1 UNL        0.0054 ****
 61 H           5.558630   -1.287020    0.408915 H         1 UNL        0.0025 ****
 62 H           6.459439   -1.451576   -1.089000 H         1 UNL        0.0025 ****
 63 C           6.568428    0.522141   -0.237082 C         1 UNL       -0.0691 ****
 64 H           5.965578    1.184093    0.401223 H         1 UNL        0.0054 ****
 65 H           6.718699    1.062162   -1.183118 H         1 UNL        0.0054 ****
 66 C           7.945167    0.321930    0.430412 C         1 UNL        0.2595 ****
 67 H           8.521225   -0.373493   -0.199681 H         1 UNL       -0.0402 ****
 68 C           7.836648   -0.294774    1.834550 C         1 UNL       -0.2032 ****
 69 H           7.244231    0.350097    2.496881 H         1 UNL        0.0393 ****
 70 H           8.827653   -0.413068    2.287403 H         1 UNL        0.0393 ****
 71 H           7.362884   -1.281225    1.817317 H         1 UNL        0.0393 ****
 72 C           8.715948    1.650517    0.485967 C         1 UNL       -0.2138 ****
 73 H           8.183291    2.385869    1.102740 H         1 UNL        0.0423 ****
 74 H           9.713125    1.514552    0.920006 H         1 UNL        0.0423 ****
 75 H           8.840862    2.082710   -0.513522 H         1 UNL        0.0423 ****
@<TRIPOS>BOND
    1     1     2 1
    2     1    27 1
    3     3     4 1
    4     3    54 1
    5     5     6 1
    6     5    12 1
    7     5    14 1
    8     5    31 1
    9     6     7 1
   10     6     8 1
   11     6    18 1
   12     8     9 1
   13     8    10 1
   14     8    27 1
   15    10    11 1
   16    10    17 1
   17    10    21 1
   18    12    13 1
   19    12    24 1
   20    12    29 1
   21    14    15 1
   22    14    16 1
   23    14    21 1
   24    17    35 1
   25    17    36 1
   26    17    41 1
   27    18    19 1
   28    18    20 1
   29    18    24 1
   30    21    22 1
   31    21    23 1
   32    24    25 1
   33    24    26 1
   34    27    28 1
   35    27    39 1
   36    29    30 1
   37    29    51 1
   38    29    56 1
   39    31    32 1
   40    31    33 1
   41    31    34 1
   42    35    39 1
   43    35    45 1
   44    36    37 1
   45    36    38 1
   46    36    48 1
   47    39    40 1
   48    41    42 1
   49    41    43 1
   50    41    44 1
   51    45    46 1
   52    45    47 1
   53    45    54 1
   54    48    49 1
   55    48    50 1
   56    48    54 1
   57    51    52 1
   58    51    53 1
   59    51    60 1
   60    54    55 1
   61    56    57 1
   62    56    58 1
   63    56    59 1
   64    60    61 1
   65    60    62 1
   66    60    63 1
   67    63    64 1
   68    63    65 1
   69    63    66 1
   70    66    67 1
   71    66    68 1
   72    66    72 1
   73    68    69 1
   74    68    70 1
   75    68    71 1
   76    72    73 1
   77    72    74 1
   78    72    75 1
@<TRIPOS>SUBSTRUCTURE
      1  UNL              1 ****               0 ****  ****  


