@<TRIPOS>MOLECULE
UNL
   75    78     1     0     1
SMALL
USER_CHARGES
@<TRIPOS>ATOM
  1 O           1.916137    2.127126   -1.955926 O         1 UNL       -0.6333 ****
  2 H           2.318443    1.412863   -2.467965 H         1 UNL        0.4072 ****
  3 O           7.724795   -1.127987   -1.071672 O         1 UNL       -0.7096 ****
  4 H           8.064921   -1.210921   -0.169669 H         1 UNL        0.4158 ****
  5 C          -0.778428    0.237902    0.888974 C         1 UNL        0.1189 ****
  6 C           0.106200    1.202734    0.051440 C         1 UNL        0.0222 ****
  7 H          -0.061747    0.917699   -0.996842 H         1 UNL        0.0244 ****
  8 C           1.615553    1.066941    0.284656 C         1 UNL       -0.0390 ****
  9 H           1.845652    1.345557    1.323317 H         1 UNL        0.0634 ****
 10 C           2.074731   -0.392145    0.034576 C         1 UNL        0.0138 ****
 11 H           1.963261   -0.561270   -1.049451 H         1 UNL        0.0499 ****
 12 C          -2.198258    0.699752    0.408004 C         1 UNL        0.0425 ****
 13 H          -2.297797    0.322669   -0.620781 H         1 UNL        0.0066 ****
 14 C          -0.351661   -1.191881    0.499510 C         1 UNL       -0.0830 ****
 15 H          -0.588846   -1.352433   -0.562077 H         1 UNL        0.0128 ****
 16 H          -0.906732   -1.950274    1.060944 H         1 UNL        0.0128 ****
 17 C           3.598139   -0.600250    0.346975 C         1 UNL        0.0850 ****
 18 C          -0.547649    2.581259    0.227380 C         1 UNL       -0.0817 ****
 19 H          -0.323644    3.246107   -0.611438 H         1 UNL        0.0291 ****
 20 H          -0.184012    3.076524    1.136916 H         1 UNL        0.0291 ****
 21 C           1.155818   -1.423044    0.732341 C         1 UNL       -0.1332 ****
 22 H           1.342985   -1.416646    1.811108 H         1 UNL        0.0567 ****
 23 H           1.409494   -2.432860    0.389588 H         1 UNL        0.0567 ****
 24 C          -2.063582    2.256936    0.340116 C         1 UNL       -0.0887 ****
 25 H          -2.492104    2.713727    1.240129 H         1 UNL        0.0274 ****
 26 H          -2.625522    2.662753   -0.506690 H         1 UNL        0.0274 ****
 27 C           2.416614    2.045143   -0.600426 C         1 UNL        0.1049 ****
 28 H           2.272319    3.060743   -0.214270 H         1 UNL        0.1183 ****
 29 C          -3.455495    0.245195    1.189691 C         1 UNL        0.0838 ****
 30 H          -3.358117    0.636274    2.213509 H         1 UNL       -0.0154 ****
 31 C          -0.628607    0.457791    2.411591 C         1 UNL       -0.1369 ****
 32 H           0.405288    0.348029    2.748791 H         1 UNL        0.0250 ****
 33 H          -0.961604    1.454748    2.715491 H         1 UNL        0.0250 ****
 34 H          -1.227782   -0.270084    2.969236 H         1 UNL        0.0250 ****
 35 C           4.423934    0.561898   -0.220480 C         1 UNL       -0.0651 ****
 36 C           4.072952   -1.919311   -0.337676 C         1 UNL       -0.0286 ****
 37 H           3.714141   -1.916144   -1.376376 H         1 UNL        0.0104 ****
 38 H           3.594249   -2.774063    0.152029 H         1 UNL        0.0104 ****
 39 C           3.882582    1.723356   -0.623375 C         1 UNL       -0.2962 ****
 40 H           4.529621    2.496347   -1.037059 H         1 UNL        0.1677 ****
 41 C           3.862563   -0.684819    1.875049 C         1 UNL       -0.0862 ****
 42 H           3.445631   -1.602381    2.300846 H         1 UNL        0.0249 ****
 43 H           4.932212   -0.683775    2.098725 H         1 UNL        0.0249 ****
 44 H           3.423042    0.167917    2.401145 H         1 UNL        0.0249 ****
 45 C           5.925620    0.358237   -0.304652 C         1 UNL       -0.2267 ****
 46 H           6.394222    1.204705   -0.816135 H         1 UNL        0.0886 ****
 47 H           6.354573    0.326169    0.709650 H         1 UNL        0.0886 ****
 48 C           5.594483   -2.131545   -0.354033 C         1 UNL       -0.1178 ****
 49 H           5.976823   -2.255745    0.669902 H         1 UNL        0.0400 ****
 50 H           5.838631   -3.053561   -0.893710 H         1 UNL        0.0400 ****
 51 C          -4.756455    0.904612    0.645290 C         1 UNL       -0.0131 ****
 52 H          -5.591687    0.556000    1.267176 H         1 UNL       -0.0043 ****
 53 H          -4.685749    1.981720    0.838037 H         1 UNL       -0.0043 ****
 54 C           6.307246   -0.950719   -1.012620 C         1 UNL        0.3343 ****
 55 H           6.001632   -0.888136   -2.064341 H         1 UNL        0.0779 ****
 56 C          -3.586679   -1.285110    1.315543 C         1 UNL       -0.1211 ****
 57 H          -3.472335   -1.791633    0.351978 H         1 UNL        0.0229 ****
 58 H          -4.568206   -1.556473    1.720139 H         1 UNL        0.0229 ****
 59 H          -2.834041   -1.698743    1.992392 H         1 UNL        0.0229 ****
 60 C          -5.124197    0.740086   -0.846912 C         1 UNL        0.0054 ****
 61 H          -5.868078    1.511686   -1.083856 H         1 UNL        0.0025 ****
 62 H          -4.252971    0.987162   -1.466285 H         1 UNL        0.0025 ****
 63 C          -5.673905   -0.621181   -1.319586 C         1 UNL       -0.0691 ****
 64 H          -4.904278   -1.393439   -1.206235 H         1 UNL        0.0054 ****
 65 H          -5.862903   -0.547146   -2.401303 H         1 UNL        0.0054 ****
 66 C          -6.969864   -1.121351   -0.646513 C         1 UNL        0.2595 ****
 67 H          -6.786721   -1.211264    0.433611 H         1 UNL       -0.0402 ****
 68 C          -7.330421   -2.521552   -1.168736 C         1 UNL       -0.2032 ****
 69 H          -7.531577   -2.496564   -2.247526 H         1 UNL        0.0393 ****
 70 H          -8.226152   -2.913254   -0.673205 H         1 UNL        0.0393 ****
 71 H          -6.514601   -3.233705   -0.999337 H         1 UNL        0.0393 ****
 72 C          -8.147718   -0.153595   -0.843612 C         1 UNL       -0.2138 ****
 73 H          -8.355609   -0.005698   -1.911473 H         1 UNL        0.0423 ****
 74 H          -9.059273   -0.547827   -0.380089 H         1 UNL        0.0423 ****
 75 H          -7.953611    0.829501   -0.402871 H         1 UNL        0.0423 ****
@<TRIPOS>BOND
    1     1     2 1
    2     1    27 1
    3     3     4 1
    4     3    54 1
    5     5     6 1
    6     5    12 1
    7     5    14 1
    8     5    31 1
    9     6     7 1
   10     6     8 1
   11     6    18 1
   12     8     9 1
   13     8    10 1
   14     8    27 1
   15    10    11 1
   16    10    17 1
   17    10    21 1
   18    12    13 1
   19    12    24 1
   20    12    29 1
   21    14    15 1
   22    14    16 1
   23    14    21 1
   24    17    35 1
   25    17    36 1
   26    17    41 1
   27    18    19 1
   28    18    20 1
   29    18    24 1
   30    21    22 1
   31    21    23 1
   32    24    25 1
   33    24    26 1
   34    27    28 1
   35    27    39 1
   36    29    30 1
   37    29    51 1
   38    29    56 1
   39    31    32 1
   40    31    33 1
   41    31    34 1
   42    35    39 1
   43    35    45 1
   44    36    37 1
   45    36    38 1
   46    36    48 1
   47    39    40 1
   48    41    42 1
   49    41    43 1
   50    41    44 1
   51    45    46 1
   52    45    47 1
   53    45    54 1
   54    48    49 1
   55    48    50 1
   56    48    54 1
   57    51    52 1
   58    51    53 1
   59    51    60 1
   60    54    55 1
   61    56    57 1
   62    56    58 1
   63    56    59 1
   64    60    61 1
   65    60    62 1
   66    60    63 1
   67    63    64 1
   68    63    65 1
   69    63    66 1
   70    66    67 1
   71    66    68 1
   72    66    72 1
   73    68    69 1
   74    68    70 1
   75    68    71 1
   76    72    73 1
   77    72    74 1
   78    72    75 1
@<TRIPOS>SUBSTRUCTURE
      1  UNL              1 ****               0 ****  ****  


