@<TRIPOS>MOLECULE
UNL
   75    78     1     0     1
SMALL
USER_CHARGES
@<TRIPOS>ATOM
  1 O           1.847592    2.651683   -1.085687 O         1 UNL       -0.6333 ****
  2 H           2.432519    2.289096   -1.764358 H         1 UNL        0.4072 ****
  3 O           8.105470    0.256832   -0.618671 O         1 UNL       -0.7096 ****
  4 H           8.376435   -0.141518    0.220416 H         1 UNL        0.4158 ****
  5 C          -0.635946   -0.641879    0.297361 C         1 UNL        0.1189 ****
  6 C           0.101592    0.706511    0.065691 C         1 UNL        0.0222 ****
  7 H           0.087731    0.865420   -1.022039 H         1 UNL        0.0244 ****
  8 C           1.580278    0.718181    0.471941 C         1 UNL       -0.0390 ****
  9 H           1.656406    0.568830    1.558810 H         1 UNL        0.0634 ****
 10 C           2.351641   -0.414123   -0.251973 C         1 UNL        0.0138 ****
 11 H           2.370731   -0.132569   -1.318050 H         1 UNL        0.0499 ****
 12 C          -2.074164   -0.249226   -0.192250 C         1 UNL        0.0425 ****
 13 H          -2.018137   -0.200160   -1.291380 H         1 UNL        0.0066 ****
 14 C           0.113431   -1.695752   -0.543980 C         1 UNL       -0.0830 ****
 15 H           0.010857   -1.433187   -1.606764 H         1 UNL        0.0128 ****
 16 H          -0.318566   -2.694676   -0.427516 H         1 UNL        0.0128 ****
 17 C           3.852612   -0.496822    0.197528 C         1 UNL        0.0850 ****
 18 C          -0.835791    1.764919    0.661949 C         1 UNL       -0.0817 ****
 19 H          -0.667246    2.752657    0.224049 H         1 UNL        0.0291 ****
 20 H          -0.681911    1.860925    1.744430 H         1 UNL        0.0291 ****
 21 C           1.608788   -1.768608   -0.172346 C         1 UNL       -0.1332 ****
 22 H           1.692984   -2.178963    0.839267 H         1 UNL        0.0567 ****
 23 H           2.096108   -2.495146   -0.832833 H         1 UNL        0.0567 ****
 24 C          -2.252908    1.212211    0.347065 C         1 UNL       -0.0887 ****
 25 H          -2.883222    1.213150    1.244588 H         1 UNL        0.0274 ****
 26 H          -2.763065    1.840392   -0.388975 H         1 UNL        0.0274 ****
 27 C           2.235005    2.087003    0.189327 C         1 UNL        0.1049 ****
 28 H           1.850966    2.812306    0.915850 H         1 UNL        0.1183 ****
 29 C          -3.278296   -1.163950    0.152728 C         1 UNL        0.0838 ****
 30 H          -3.391246   -1.170539    1.247737 H         1 UNL       -0.0154 ****
 31 C          -0.672297   -1.051947    1.787567 C         1 UNL       -0.1369 ****
 32 H           0.326888   -1.122989    2.224988 H         1 UNL        0.0250 ****
 33 H          -1.238436   -0.337925    2.393295 H         1 UNL        0.0250 ****
 34 H          -1.147761   -2.030724    1.910153 H         1 UNL        0.0250 ****
 35 C           4.465425    0.907618    0.277102 C         1 UNL       -0.0651 ****
 36 C           4.647348   -1.318844   -0.863949 C         1 UNL       -0.0286 ****
 37 H           4.386188   -0.936700   -1.860648 H         1 UNL        0.0104 ****
 38 H           4.315717   -2.362321   -0.836453 H         1 UNL        0.0104 ****
 39 C           3.732113    2.033008    0.281702 C         1 UNL       -0.2962 ****
 40 H           4.238276    2.997270    0.317906 H         1 UNL        0.1677 ****
 41 C           3.996541   -1.170008    1.589750 C         1 UNL       -0.0862 ****
 42 H           3.746184   -2.234175    1.545119 H         1 UNL        0.0249 ****
 43 H           5.018850   -1.095828    1.968705 H         1 UNL        0.0249 ****
 44 H           3.344168   -0.695120    2.328765 H         1 UNL        0.0249 ****
 45 C           5.978258    0.991055    0.366288 C         1 UNL       -0.2267 ****
 46 H           6.303342    2.034749    0.313939 H         1 UNL        0.0886 ****
 47 H           6.315846    0.604337    1.341159 H         1 UNL        0.0886 ****
 48 C           6.175553   -1.268506   -0.713735 C         1 UNL       -0.1178 ****
 49 H           6.486000   -1.749135    0.225785 H         1 UNL        0.0400 ****
 50 H           6.650758   -1.831002   -1.525370 H         1 UNL        0.0400 ****
 51 C          -4.587681   -0.580225   -0.438095 C         1 UNL       -0.0131 ****
 52 H          -4.605780    0.501384   -0.274445 H         1 UNL       -0.0043 ****
 53 H          -4.575030   -0.722088   -1.530115 H         1 UNL       -0.0043 ****
 54 C           6.682226    0.173419   -0.727371 C         1 UNL        0.3343 ****
 55 H           6.462106    0.622103   -1.703935 H         1 UNL        0.0779 ****
 56 C          -3.087322   -2.617775   -0.315882 C         1 UNL       -0.1211 ****
 57 H          -2.852539   -2.654696   -1.387057 H         1 UNL        0.0229 ****
 58 H          -3.993892   -3.209327   -0.156340 H         1 UNL        0.0229 ****
 59 H          -2.280524   -3.123254    0.219774 H         1 UNL        0.0229 ****
 60 C          -5.881836   -1.178798    0.137278 C         1 UNL        0.0054 ****
 61 H          -5.874086   -2.269165    0.020364 H         1 UNL        0.0025 ****
 62 H          -5.910810   -0.995952    1.220126 H         1 UNL        0.0025 ****
 63 C          -7.172442   -0.653560   -0.519407 C         1 UNL       -0.0691 ****
 64 H          -8.026641   -1.210219   -0.105900 H         1 UNL        0.0054 ****
 65 H          -7.142277   -0.899439   -1.590835 H         1 UNL        0.0054 ****
 66 C          -7.469131    0.854493   -0.374797 C         1 UNL        0.2595 ****
 67 H          -6.628582    1.415548   -0.807443 H         1 UNL       -0.0402 ****
 68 C          -7.618280    1.285104    1.093008 C         1 UNL       -0.2032 ****
 69 H          -8.434021    0.734154    1.579231 H         1 UNL        0.0393 ****
 70 H          -7.850350    2.353741    1.165612 H         1 UNL        0.0393 ****
 71 H          -6.705658    1.106983    1.670946 H         1 UNL        0.0393 ****
 72 C          -8.728050    1.224861   -1.175340 C         1 UNL       -0.2138 ****
 73 H          -9.608552    0.697858   -0.785551 H         1 UNL        0.0423 ****
 74 H          -8.933309    2.300051   -1.120060 H         1 UNL        0.0423 ****
 75 H          -8.621920    0.957580   -2.233047 H         1 UNL        0.0423 ****
@<TRIPOS>BOND
    1     1     2 1
    2     1    27 1
    3     3     4 1
    4     3    54 1
    5     5     6 1
    6     5    12 1
    7     5    14 1
    8     5    31 1
    9     6     7 1
   10     6     8 1
   11     6    18 1
   12     8     9 1
   13     8    10 1
   14     8    27 1
   15    10    11 1
   16    10    17 1
   17    10    21 1
   18    12    13 1
   19    12    24 1
   20    12    29 1
   21    14    15 1
   22    14    16 1
   23    14    21 1
   24    17    35 1
   25    17    36 1
   26    17    41 1
   27    18    19 1
   28    18    20 1
   29    18    24 1
   30    21    22 1
   31    21    23 1
   32    24    25 1
   33    24    26 1
   34    27    28 1
   35    27    39 1
   36    29    30 1
   37    29    51 1
   38    29    56 1
   39    31    32 1
   40    31    33 1
   41    31    34 1
   42    35    39 1
   43    35    45 1
   44    36    37 1
   45    36    38 1
   46    36    48 1
   47    39    40 1
   48    41    42 1
   49    41    43 1
   50    41    44 1
   51    45    46 1
   52    45    47 1
   53    45    54 1
   54    48    49 1
   55    48    50 1
   56    48    54 1
   57    51    52 1
   58    51    53 1
   59    51    60 1
   60    54    55 1
   61    56    57 1
   62    56    58 1
   63    56    59 1
   64    60    61 1
   65    60    62 1
   66    60    63 1
   67    63    64 1
   68    63    65 1
   69    63    66 1
   70    66    67 1
   71    66    68 1
   72    66    72 1
   73    68    69 1
   74    68    70 1
   75    68    71 1
   76    72    73 1
   77    72    74 1
   78    72    75 1
@<TRIPOS>SUBSTRUCTURE
      1  UNL              1 ****               0 ****  ****  


