@<TRIPOS>MOLECULE
UNL
   75    78     1     0     1
SMALL
USER_CHARGES
@<TRIPOS>ATOM
  1 O          -1.523053   -1.401733    2.432366 O         1 UNL       -0.6333 ****
  2 H          -1.916623   -2.076284    1.862916 H         1 UNL        0.4072 ****
  3 O          -7.553994   -1.634306   -0.516895 O         1 UNL       -0.7096 ****
  4 H          -7.974801   -0.795705   -0.753202 H         1 UNL        0.4158 ****
  5 C           0.803853    1.201153   -0.163225 C         1 UNL        0.1189 ****
  6 C           0.050096    0.510983    1.007423 C         1 UNL        0.0222 ****
  7 H           0.295716   -0.557222    0.924062 H         1 UNL        0.0244 ****
  8 C          -1.479242    0.595120    0.934050 C         1 UNL       -0.0390 ****
  9 H          -1.786199    1.647811    1.017651 H         1 UNL        0.0634 ****
 10 C          -1.990804    0.020470   -0.411349 C         1 UNL        0.0138 ****
 11 H          -1.791901   -1.063482   -0.371017 H         1 UNL        0.0499 ****
 12 C           2.283483    0.935111    0.283957 C         1 UNL        0.0425 ****
 13 H           2.455404   -0.138074    0.112500 H         1 UNL        0.0066 ****
 14 C           0.338188    0.499100   -1.454948 C         1 UNL       -0.0830 ****
 15 H           0.660088   -0.551707   -1.419351 H         1 UNL        0.0128 ****
 16 H           0.800059    0.936744   -2.345803 H         1 UNL        0.0128 ****
 17 C          -3.544902    0.166427   -0.570095 C         1 UNL        0.0850 ****
 18 C           0.757720    1.012759    2.274836 C         1 UNL       -0.0817 ****
 19 H           0.646243    0.310965    3.106040 H         1 UNL        0.0291 ****
 20 H           0.339904    1.972421    2.605343 H         1 UNL        0.0291 ****
 21 C          -1.194119    0.564244   -1.621098 C         1 UNL       -0.1332 ****
 22 H          -1.475922    1.604571   -1.813687 H         1 UNL        0.0567 ****
 23 H          -1.470028    0.006526   -2.523556 H         1 UNL        0.0567 ****
 24 C           2.237895    1.175770    1.829167 C         1 UNL       -0.0887 ****
 25 H           2.605972    2.180909    2.066878 H         1 UNL        0.0274 ****
 26 H           2.895357    0.476568    2.354846 H         1 UNL        0.0274 ****
 27 C          -2.145024   -0.132584    2.121057 C         1 UNL        0.1049 ****
 28 H          -1.980924    0.460336    3.028181 H         1 UNL        0.1183 ****
 29 C           3.439251    1.702196   -0.404405 C         1 UNL        0.0838 ****
 30 H           3.271459    2.773780   -0.219587 H         1 UNL       -0.0154 ****
 31 C           0.530205    2.720680   -0.238023 C         1 UNL       -0.1369 ****
 32 H          -0.534118    2.947983   -0.339312 H         1 UNL        0.0250 ****
 33 H           0.887389    3.245044    0.653407 H         1 UNL        0.0250 ****
 34 H           1.037256    3.163834   -1.101862 H         1 UNL        0.0250 ****
 35 C          -4.254236   -0.213581    0.736392 C         1 UNL       -0.0651 ****
 36 C          -4.026644   -0.807603   -1.689569 C         1 UNL       -0.0286 ****
 37 H          -3.579196   -1.793848   -1.503068 H         1 UNL        0.0104 ****
 38 H          -3.637577   -0.469493   -2.655962 H         1 UNL        0.0104 ****
 39 C          -3.618347   -0.330933    1.913781 C         1 UNL       -0.2962 ****
 40 H          -4.184254   -0.627251    2.796525 H         1 UNL        0.1677 ****
 41 C          -3.947831    1.620385   -0.938614 C         1 UNL       -0.0862 ****
 42 H          -3.622716    1.878779   -1.950834 H         1 UNL        0.0249 ****
 43 H          -5.031254    1.758767   -0.903745 H         1 UNL        0.0249 ****
 44 H          -3.508683    2.341744   -0.242940 H         1 UNL        0.0249 ****
 45 C          -5.751517   -0.449942    0.659000 C         1 UNL       -0.2267 ****
 46 H          -6.127629   -0.812353    1.620726 H         1 UNL        0.0886 ****
 47 H          -6.268662    0.501646    0.456840 H         1 UNL        0.0886 ****
 48 C          -5.550073   -0.980304   -1.788530 C         1 UNL       -0.1178 ****
 49 H          -6.026032   -0.034591   -2.087133 H         1 UNL        0.0400 ****
 50 H          -5.794701   -1.713309   -2.565601 H         1 UNL        0.0400 ****
 51 C           4.815504    1.406750    0.259043 C         1 UNL       -0.0131 ****
 52 H           5.576513    1.993932   -0.274886 H         1 UNL       -0.0043 ****
 53 H           4.787802    1.819459    1.274538 H         1 UNL       -0.0043 ****
 54 C          -6.139448   -1.435655   -0.453793 C         1 UNL        0.3343 ****
 55 H          -5.741207   -2.427143   -0.205242 H         1 UNL        0.0779 ****
 56 C           3.478096    1.521656   -1.934506 C         1 UNL       -0.1211 ****
 57 H           3.411892    0.469910   -2.229975 H         1 UNL        0.0229 ****
 58 H           4.410289    1.923793   -2.347056 H         1 UNL        0.0229 ****
 59 H           2.654196    2.050028   -2.422285 H         1 UNL        0.0229 ****
 60 C           5.313328   -0.051585    0.373021 C         1 UNL        0.0054 ****
 61 H           6.129468   -0.046024    1.106863 H         1 UNL        0.0025 ****
 62 H           4.527912   -0.678665    0.811731 H         1 UNL        0.0025 ****
 63 C           5.830734   -0.694851   -0.926017 C         1 UNL       -0.0691 ****
 64 H           6.510746    0.012035   -1.423277 H         1 UNL        0.0054 ****
 65 H           4.996927   -0.851449   -1.620021 H         1 UNL        0.0054 ****
 66 C           6.571516   -2.044629   -0.764095 C         1 UNL        0.2595 ****
 67 H           6.830714   -2.368091   -1.783183 H         1 UNL       -0.0402 ****
 68 C           5.679133   -3.139446   -0.155843 C         1 UNL       -0.2032 ****
 69 H           5.425616   -2.920130    0.887725 H         1 UNL        0.0393 ****
 70 H           6.186961   -4.110606   -0.171584 H         1 UNL        0.0393 ****
 71 H           4.740509   -3.244664   -0.712775 H         1 UNL        0.0393 ****
 72 C           7.892568   -1.914023    0.012417 C         1 UNL       -0.2138 ****
 73 H           7.724244   -1.652524    1.063397 H         1 UNL        0.0423 ****
 74 H           8.446363   -2.859759   -0.001968 H         1 UNL        0.0423 ****
 75 H           8.537505   -1.142917   -0.425221 H         1 UNL        0.0423 ****
@<TRIPOS>BOND
    1     1     2 1
    2     1    27 1
    3     3     4 1
    4     3    54 1
    5     5     6 1
    6     5    12 1
    7     5    14 1
    8     5    31 1
    9     6     7 1
   10     6     8 1
   11     6    18 1
   12     8     9 1
   13     8    10 1
   14     8    27 1
   15    10    11 1
   16    10    17 1
   17    10    21 1
   18    12    13 1
   19    12    24 1
   20    12    29 1
   21    14    15 1
   22    14    16 1
   23    14    21 1
   24    17    35 1
   25    17    36 1
   26    17    41 1
   27    18    19 1
   28    18    20 1
   29    18    24 1
   30    21    22 1
   31    21    23 1
   32    24    25 1
   33    24    26 1
   34    27    28 1
   35    27    39 1
   36    29    30 1
   37    29    51 1
   38    29    56 1
   39    31    32 1
   40    31    33 1
   41    31    34 1
   42    35    39 1
   43    35    45 1
   44    36    37 1
   45    36    38 1
   46    36    48 1
   47    39    40 1
   48    41    42 1
   49    41    43 1
   50    41    44 1
   51    45    46 1
   52    45    47 1
   53    45    54 1
   54    48    49 1
   55    48    50 1
   56    48    54 1
   57    51    52 1
   58    51    53 1
   59    51    60 1
   60    54    55 1
   61    56    57 1
   62    56    58 1
   63    56    59 1
   64    60    61 1
   65    60    62 1
   66    60    63 1
   67    63    64 1
   68    63    65 1
   69    63    66 1
   70    66    67 1
   71    66    68 1
   72    66    72 1
   73    68    69 1
   74    68    70 1
   75    68    71 1
   76    72    73 1
   77    72    74 1
   78    72    75 1
@<TRIPOS>SUBSTRUCTURE
      1  UNL              1 ****               0 ****  ****  


