@<TRIPOS>MOLECULE
UNL
   75    78     1     0     1
SMALL
USER_CHARGES
@<TRIPOS>ATOM
  1 O           1.819652    2.685349   -0.933461 O         1 UNL       -0.6333 ****
  2 H           2.295268    2.295491   -1.679105 H         1 UNL        0.4072 ****
  3 O           7.937596   -0.064373   -1.253463 O         1 UNL       -0.7096 ****
  4 H           8.287959   -0.485349   -0.455844 H         1 UNL        0.4158 ****
  5 C          -0.654806   -0.470426    0.753055 C         1 UNL        0.1189 ****
  6 C           0.121965    0.836138    0.429549 C         1 UNL        0.0222 ****
  7 H          -0.017893    1.000048   -0.648421 H         1 UNL        0.0244 ****
  8 C           1.638024    0.761256    0.647425 C         1 UNL       -0.0390 ****
  9 H           1.840733    0.600180    1.716216 H         1 UNL        0.0634 ****
 10 C           2.245969   -0.407851   -0.168375 C         1 UNL        0.0138 ****
 11 H           2.147821   -0.118623   -1.228018 H         1 UNL        0.0499 ****
 12 C          -2.116401    0.009807    0.448221 C         1 UNL        0.0425 ****
 13 H          -2.180303    0.081835   -0.647357 H         1 UNL        0.0066 ****
 14 C          -0.081306   -1.558752   -0.177077 C         1 UNL       -0.0830 ****
 15 H          -0.303368   -1.284010   -1.218293 H         1 UNL        0.0128 ****
 16 H          -0.552227   -2.531971   -0.004668 H         1 UNL        0.0128 ****
 17 C           3.784193   -0.579723    0.089006 C         1 UNL        0.0850 ****
 18 C          -0.672891    1.944884    1.134504 C         1 UNL       -0.0817 ****
 19 H          -0.517461    2.918900    0.662329 H         1 UNL        0.0291 ****
 20 H          -0.366033    2.042659    2.183830 H         1 UNL        0.0291 ****
 21 C           1.442573   -1.719174    0.001143 C         1 UNL       -0.1332 ****
 22 H           1.630635   -2.143923    0.992575 H         1 UNL        0.0567 ****
 23 H           1.800271   -2.465180   -0.717955 H         1 UNL        0.0567 ****
 24 C          -2.146563    1.462144    1.029803 C         1 UNL       -0.0887 ****
 25 H          -2.628079    1.466926    2.014922 H         1 UNL        0.0274 ****
 26 H          -2.741548    2.125472    0.394198 H         1 UNL        0.0274 ****
 27 C           2.329838    2.092100    0.284126 C         1 UNL        0.1049 ****
 28 H           2.081336    2.833760    1.051965 H         1 UNL        0.1183 ****
 29 C          -3.315669   -0.845337    0.927477 C         1 UNL        0.0838 ****
 30 H          -3.250433   -0.913584    2.023264 H         1 UNL       -0.0154 ****
 31 C          -0.525849   -0.893612    2.234042 C         1 UNL       -0.1369 ****
 32 H           0.514621   -1.031233    2.539471 H         1 UNL        0.0250 ****
 33 H          -0.964160   -0.153470    2.910359 H         1 UNL        0.0250 ****
 34 H          -1.041842   -1.843404    2.411897 H         1 UNL        0.0250 ****
 35 C           4.482209    0.786707    0.092375 C         1 UNL       -0.0651 ****
 36 C           4.390701   -1.437088   -1.064769 C         1 UNL       -0.0286 ****
 37 H           4.029526   -1.032326   -2.020478 H         1 UNL        0.0104 ****
 38 H           4.005115   -2.459987   -0.996980 H         1 UNL        0.0104 ****
 39 C           3.821291    1.952129    0.189204 C         1 UNL       -0.2962 ****
 40 H           4.382749    2.885596    0.162421 H         1 UNL        0.1677 ****
 41 C           4.062490   -1.272050    1.451165 C         1 UNL       -0.0862 ****
 42 H           3.745642   -2.319173    1.437320 H         1 UNL        0.0249 ****
 43 H           5.127069   -1.261593    1.697744 H         1 UNL        0.0249 ****
 44 H           3.538198   -0.766003    2.267376 H         1 UNL        0.0249 ****
 45 C           5.996574    0.782364   -0.008550 C         1 UNL       -0.2267 ****
 46 H           6.372699    1.806003   -0.100228 H         1 UNL        0.0886 ****
 47 H           6.430373    0.368773    0.915902 H         1 UNL        0.0886 ****
 48 C           5.925917   -1.475864   -1.107286 C         1 UNL       -0.1178 ****
 49 H           6.323085   -1.981342   -0.214648 H         1 UNL        0.0400 ****
 50 H           6.262451   -2.057865   -1.972735 H         1 UNL        0.0400 ****
 51 C          -4.681159   -0.163864    0.637889 C         1 UNL       -0.0131 ****
 52 H          -5.457222   -0.781190    1.109284 H         1 UNL       -0.0043 ****
 53 H          -4.719882    0.805510    1.151025 H         1 UNL       -0.0043 ****
 54 C           6.509557   -0.065231   -1.182768 C         1 UNL        0.3343 ****
 55 H           6.195023    0.403406   -2.123452 H         1 UNL        0.0779 ****
 56 C          -3.310084   -2.285028    0.379923 C         1 UNL       -0.1211 ****
 57 H          -3.207174   -2.307284   -0.710813 H         1 UNL        0.0229 ****
 58 H          -4.246279   -2.795584    0.635448 H         1 UNL        0.0229 ****
 59 H          -2.493557   -2.878656    0.798733 H         1 UNL        0.0229 ****
 60 C          -5.036750    0.051991   -0.842760 C         1 UNL        0.0054 ****
 61 H          -4.241603    0.631538   -1.328518 H         1 UNL        0.0025 ****
 62 H          -5.066955   -0.910935   -1.367138 H         1 UNL        0.0025 ****
 63 C          -6.361692    0.806401   -1.065019 C         1 UNL       -0.0691 ****
 64 H          -6.471191    1.013173   -2.140076 H         1 UNL        0.0054 ****
 65 H          -6.289501    1.787992   -0.574528 H         1 UNL        0.0054 ****
 66 C          -7.651937    0.113047   -0.577661 C         1 UNL        0.2595 ****
 67 H          -7.554044   -0.082267    0.499738 H         1 UNL       -0.0402 ****
 68 C          -7.896695   -1.231680   -1.280551 C         1 UNL       -0.2032 ****
 69 H          -7.980748   -1.093381   -2.366461 H         1 UNL        0.0393 ****
 70 H          -8.828398   -1.691619   -0.931830 H         1 UNL        0.0393 ****
 71 H          -7.088290   -1.947020   -1.097950 H         1 UNL        0.0393 ****
 72 C          -8.858354    1.046767   -0.766961 C         1 UNL       -0.2138 ****
 73 H          -9.011697    1.277135   -1.829195 H         1 UNL        0.0423 ****
 74 H          -9.779924    0.588203   -0.390477 H         1 UNL        0.0423 ****
 75 H          -8.715617    1.996233   -0.238236 H         1 UNL        0.0423 ****
@<TRIPOS>BOND
    1     1     2 1
    2     1    27 1
    3     3     4 1
    4     3    54 1
    5     5     6 1
    6     5    12 1
    7     5    14 1
    8     5    31 1
    9     6     7 1
   10     6     8 1
   11     6    18 1
   12     8     9 1
   13     8    10 1
   14     8    27 1
   15    10    11 1
   16    10    17 1
   17    10    21 1
   18    12    13 1
   19    12    24 1
   20    12    29 1
   21    14    15 1
   22    14    16 1
   23    14    21 1
   24    17    35 1
   25    17    36 1
   26    17    41 1
   27    18    19 1
   28    18    20 1
   29    18    24 1
   30    21    22 1
   31    21    23 1
   32    24    25 1
   33    24    26 1
   34    27    28 1
   35    27    39 1
   36    29    30 1
   37    29    51 1
   38    29    56 1
   39    31    32 1
   40    31    33 1
   41    31    34 1
   42    35    39 1
   43    35    45 1
   44    36    37 1
   45    36    38 1
   46    36    48 1
   47    39    40 1
   48    41    42 1
   49    41    43 1
   50    41    44 1
   51    45    46 1
   52    45    47 1
   53    45    54 1
   54    48    49 1
   55    48    50 1
   56    48    54 1
   57    51    52 1
   58    51    53 1
   59    51    60 1
   60    54    55 1
   61    56    57 1
   62    56    58 1
   63    56    59 1
   64    60    61 1
   65    60    62 1
   66    60    63 1
   67    63    64 1
   68    63    65 1
   69    63    66 1
   70    66    67 1
   71    66    68 1
   72    66    72 1
   73    68    69 1
   74    68    70 1
   75    68    71 1
   76    72    73 1
   77    72    74 1
   78    72    75 1
@<TRIPOS>SUBSTRUCTURE
      1  UNL              1 ****               0 ****  ****  


