@<TRIPOS>MOLECULE
UNL
   75    78     1     0     1
SMALL
USER_CHARGES
@<TRIPOS>ATOM
  1 O          -2.750702    2.966442    0.401364 O         1 UNL       -0.6333 ****
  2 H          -3.284871    2.586246    1.111493 H         1 UNL        0.4072 ****
  3 O          -7.670247   -1.599839    0.201020 O         1 UNL       -0.7096 ****
  4 H          -7.649855   -2.257495   -0.508380 H         1 UNL        0.4158 ****
  5 C           0.870609    0.577139    0.153992 C         1 UNL        0.1189 ****
  6 C          -0.288419    1.586602   -0.043891 C         1 UNL        0.0222 ****
  7 H          -0.508585    1.983812    0.956793 H         1 UNL        0.0244 ****
  8 C          -1.597539    0.960510   -0.537035 C         1 UNL       -0.0390 ****
  9 H          -1.442929    0.540724   -1.541468 H         1 UNL        0.0634 ****
 10 C          -2.048535   -0.169955    0.426652 C         1 UNL        0.0138 ****
 11 H          -2.339167    0.335057    1.362857 H         1 UNL        0.0499 ****
 12 C           1.987999    1.561374    0.622320 C         1 UNL        0.0425 ****
 13 H           1.649256    1.892941    1.614493 H         1 UNL        0.0066 ****
 14 C           0.412503   -0.438686    1.214771 C         1 UNL       -0.0830 ****
 15 H           0.259368    0.090010    2.166627 H         1 UNL        0.0128 ****
 16 H           1.181975   -1.200510    1.399129 H         1 UNL        0.0128 ****
 17 C          -3.338800   -0.904257   -0.082257 C         1 UNL        0.0850 ****
 18 C           0.344723    2.747952   -0.832369 C         1 UNL       -0.0817 ****
 19 H          -0.182011    3.689579   -0.654407 H         1 UNL        0.0291 ****
 20 H           0.307042    2.558251   -1.912780 H         1 UNL        0.0291 ****
 21 C          -0.897184   -1.140027    0.798047 C         1 UNL       -0.1332 ****
 22 H          -0.682146   -1.802168   -0.046411 H         1 UNL        0.0567 ****
 23 H          -1.220777   -1.793272    1.616464 H         1 UNL        0.0567 ****
 24 C           1.822396    2.787252   -0.330163 C         1 UNL       -0.0887 ****
 25 H           2.513390    2.731967   -1.175873 H         1 UNL        0.0274 ****
 26 H           2.046607    3.723326    0.191591 H         1 UNL        0.0274 ****
 27 C          -2.712197    2.016407   -0.689761 C         1 UNL        0.1049 ****
 28 H          -2.481398    2.639639   -1.561492 H         1 UNL        0.1183 ****
 29 C           3.429187    1.013334    0.846454 C         1 UNL        0.0838 ****
 30 H           3.317237   -0.033270    1.163500 H         1 UNL       -0.0154 ****
 31 C           1.259463   -0.151769   -1.151160 C         1 UNL       -0.1369 ****
 32 H           0.427198   -0.724179   -1.568712 H         1 UNL        0.0250 ****
 33 H           1.590483    0.542955   -1.928254 H         1 UNL        0.0250 ****
 34 H           2.075821   -0.858188   -0.967917 H         1 UNL        0.0250 ****
 35 C          -4.367523    0.113367   -0.593861 C         1 UNL       -0.0651 ****
 36 C          -3.973161   -1.684929    1.110468 C         1 UNL       -0.0286 ****
 37 H          -4.022120   -1.009678    1.976113 H         1 UNL        0.0104 ****
 38 H          -3.310387   -2.508137    1.397713 H         1 UNL        0.0104 ****
 39 C          -4.066869    1.394325   -0.864295 C         1 UNL       -0.2962 ****
 40 H          -4.855526    2.065348   -1.203481 H         1 UNL        0.1677 ****
 41 C          -3.017694   -1.892296   -1.236899 C         1 UNL       -0.0862 ****
 42 H          -2.434010   -2.746111   -0.880016 H         1 UNL        0.0249 ****
 43 H          -3.928803   -2.292554   -1.688484 H         1 UNL        0.0249 ****
 44 H          -2.452771   -1.400015   -2.034181 H         1 UNL        0.0249 ****
 45 C          -5.783308   -0.391010   -0.805155 C         1 UNL       -0.2267 ****
 46 H          -6.444958    0.439325   -1.070589 H         1 UNL        0.0886 ****
 47 H          -5.805629   -1.095043   -1.652328 H         1 UNL        0.0886 ****
 48 C          -5.382827   -2.237555    0.849876 C         1 UNL       -0.1178 ****
 49 H          -5.355316   -3.007179    0.064357 H         1 UNL        0.0400 ****
 50 H          -5.766964   -2.725263    1.752959 H         1 UNL        0.0400 ****
 51 C           4.351608    1.039658   -0.397243 C         1 UNL       -0.0131 ****
 52 H           3.795165    0.736382   -1.290421 H         1 UNL       -0.0043 ****
 53 H           4.661875    2.078283   -0.574215 H         1 UNL       -0.0043 ****
 54 C          -6.340225   -1.124807    0.424129 C         1 UNL        0.3343 ****
 55 H          -6.447013   -0.408179    1.247832 H         1 UNL        0.0779 ****
 56 C           4.093033    1.769085    2.016199 C         1 UNL       -0.1211 ****
 57 H           4.172531    2.840347    1.792452 H         1 UNL        0.0229 ****
 58 H           5.102255    1.400184    2.225062 H         1 UNL        0.0229 ****
 59 H           3.508106    1.664116    2.936660 H         1 UNL        0.0229 ****
 60 C           5.620571    0.165249   -0.308450 C         1 UNL        0.0054 ****
 61 H           6.272749    0.440695   -1.146704 H         1 UNL        0.0025 ****
 62 H           6.181171    0.412932    0.600832 H         1 UNL        0.0025 ****
 63 C           5.347613   -1.347606   -0.361088 C         1 UNL       -0.0691 ****
 64 H           4.776151   -1.566982   -1.274874 H         1 UNL        0.0054 ****
 65 H           4.699121   -1.632566    0.478128 H         1 UNL        0.0054 ****
 66 C           6.589560   -2.270319   -0.334665 C         1 UNL        0.2595 ****
 67 H           6.200995   -3.298464   -0.383357 H         1 UNL       -0.0402 ****
 68 C           7.387910   -2.152489    0.974444 C         1 UNL       -0.2032 ****
 69 H           7.864804   -1.170319    1.070613 H         1 UNL        0.0393 ****
 70 H           8.182552   -2.906219    1.015273 H         1 UNL        0.0393 ****
 71 H           6.743678   -2.298904    1.849448 H         1 UNL        0.0393 ****
 72 C           7.502211   -2.076557   -1.557174 C         1 UNL       -0.2138 ****
 73 H           7.987622   -1.093918   -1.549403 H         1 UNL        0.0423 ****
 74 H           8.296125   -2.831996   -1.573282 H         1 UNL        0.0423 ****
 75 H           6.938922   -2.164276   -2.493753 H         1 UNL        0.0423 ****
@<TRIPOS>BOND
    1     1     2 1
    2     1    27 1
    3     3     4 1
    4     3    54 1
    5     5     6 1
    6     5    12 1
    7     5    14 1
    8     5    31 1
    9     6     7 1
   10     6     8 1
   11     6    18 1
   12     8     9 1
   13     8    10 1
   14     8    27 1
   15    10    11 1
   16    10    17 1
   17    10    21 1
   18    12    13 1
   19    12    24 1
   20    12    29 1
   21    14    15 1
   22    14    16 1
   23    14    21 1
   24    17    35 1
   25    17    36 1
   26    17    41 1
   27    18    19 1
   28    18    20 1
   29    18    24 1
   30    21    22 1
   31    21    23 1
   32    24    25 1
   33    24    26 1
   34    27    28 1
   35    27    39 1
   36    29    30 1
   37    29    51 1
   38    29    56 1
   39    31    32 1
   40    31    33 1
   41    31    34 1
   42    35    39 1
   43    35    45 1
   44    36    37 1
   45    36    38 1
   46    36    48 1
   47    39    40 1
   48    41    42 1
   49    41    43 1
   50    41    44 1
   51    45    46 1
   52    45    47 1
   53    45    54 1
   54    48    49 1
   55    48    50 1
   56    48    54 1
   57    51    52 1
   58    51    53 1
   59    51    60 1
   60    54    55 1
   61    56    57 1
   62    56    58 1
   63    56    59 1
   64    60    61 1
   65    60    62 1
   66    60    63 1
   67    63    64 1
   68    63    65 1
   69    63    66 1
   70    66    67 1
   71    66    68 1
   72    66    72 1
   73    68    69 1
   74    68    70 1
   75    68    71 1
   76    72    73 1
   77    72    74 1
   78    72    75 1
@<TRIPOS>SUBSTRUCTURE
      1  UNL              1 ****               0 ****  ****  


