@<TRIPOS>MOLECULE
UNL
   76    79     1     0     1
SMALL
USER_CHARGES
@<TRIPOS>ATOM
  1 C           6.595422   -0.887377   -0.615526 C         1 UNL        0.4631 ****
  2 H           6.437702   -0.796440   -1.697193 H         1 UNL        0.0087 ****
  3 C           6.034454    0.361859    0.078604 C         1 UNL       -0.1309 ****
  4 H           6.514944    1.258233   -0.326083 H         1 UNL        0.0508 ****
  5 H           6.316211    0.304847    1.142657 H         1 UNL        0.0508 ****
  6 C           4.526403    0.474987   -0.038004 C         1 UNL       -0.1086 ****
  7 C           3.695217   -0.756899    0.337159 C         1 UNL        0.3596 ****
  8 C           4.354668   -2.015049   -0.309125 C         1 UNL       -0.1159 ****
  9 H           4.153410   -1.992947   -1.389220 H         1 UNL        0.0287 ****
 10 H           3.870636   -2.917845    0.077546 H         1 UNL        0.0287 ****
 11 C           5.872968   -2.133457   -0.105897 C         1 UNL       -0.1534 ****
 12 H           6.109205   -2.273928    0.959429 H         1 UNL        0.0373 ****
 13 H           6.252426   -3.017637   -0.630579 H         1 UNL        0.0373 ****
 14 C           3.965952    1.622295   -0.443897 C         1 UNL       -0.3956 ****
 15 H           4.602862    2.461498   -0.725629 H         1 UNL        0.1796 ****
 16 C           2.492281    1.887111   -0.540673 C         1 UNL        0.4623 ****
 17 H           2.219832    2.056146   -1.595225 H         1 UNL       -0.0404 ****
 18 C           1.606288    0.781541    0.053486 C         1 UNL        0.1258 ****
 19 H           1.571339    0.953127    1.134840 H         1 UNL       -0.0202 ****
 20 C           2.240663   -0.608202   -0.231566 C         1 UNL       -0.1120 ****
 21 H           2.345780   -0.674194   -1.327321 H         1 UNL       -0.0458 ****
 22 C           1.297106   -1.756625    0.192408 C         1 UNL        0.1199 ****
 23 H           1.247724   -1.810479    1.285409 H         1 UNL       -0.0214 ****
 24 H           1.712119   -2.714823   -0.138947 H         1 UNL       -0.0214 ****
 25 C          -0.135644   -1.631590   -0.361505 C         1 UNL       -0.2187 ****
 26 H          -0.113277   -1.728532   -1.456699 H         1 UNL        0.0210 ****
 27 H          -0.724692   -2.474802    0.012150 H         1 UNL        0.0210 ****
 28 C          -0.777976   -0.277583    0.000644 C         1 UNL        0.4137 ****
 29 C           0.182682    0.826810   -0.529412 C         1 UNL        0.0850 ****
 30 H           0.294601    0.614236   -1.607428 H         1 UNL       -0.0460 ****
 31 C          -0.638733    2.121551   -0.423513 C         1 UNL       -0.0961 ****
 32 H          -0.282173    2.900469   -1.102336 H         1 UNL        0.0185 ****
 33 H          -0.569722    2.541784    0.585039 H         1 UNL        0.0185 ****
 34 C          -2.085657    1.664763   -0.751099 C         1 UNL       -0.0597 ****
 35 H          -2.790007    2.033204    0.004373 H         1 UNL        0.0146 ****
 36 H          -2.422685    2.071805   -1.709303 H         1 UNL        0.0146 ****
 37 C          -2.086689    0.098670   -0.778585 C         1 UNL       -0.0439 ****
 38 H          -1.923208   -0.223593   -1.819640 H         1 UNL       -0.0320 ****
 39 C          -1.011379   -0.171492    1.525291 C         1 UNL       -0.4528 ****
 40 H          -0.079606   -0.221518    2.094260 H         1 UNL        0.0908 ****
 41 H          -1.503949    0.766052    1.798797 H         1 UNL        0.0908 ****
 42 H          -1.648666   -0.989906    1.876196 H         1 UNL        0.0908 ****
 43 C          -3.446663   -0.502791   -0.335373 C         1 UNL        0.2865 ****
 44 H          -3.652200   -0.137410    0.680573 H         1 UNL       -0.0643 ****
 45 C          -3.453034   -2.040529   -0.297453 C         1 UNL       -0.3027 ****
 46 H          -3.176763   -2.459454   -1.273502 H         1 UNL        0.0608 ****
 47 H          -4.444461   -2.426715   -0.041981 H         1 UNL        0.0608 ****
 48 H          -2.757625   -2.437740    0.445037 H         1 UNL        0.0608 ****
 49 C           3.699294   -0.899901    1.882544 C         1 UNL       -0.0948 ****
 50 H           3.241001   -1.843050    2.195704 H         1 UNL        0.0041 ****
 51 H           4.716808   -0.888261    2.282806 H         1 UNL        0.0041 ****
 52 H           3.156410   -0.077037    2.356463 H         1 UNL        0.0041 ****
 53 O           2.181351    3.199721   -0.007966 O         1 UNL       -0.3317 ****
 54 O           2.439397    3.206193    1.427301 O         1 UNL       -0.4042 ****
 55 H           3.287503    3.678307    1.460551 H         1 UNL        0.3900 ****
 56 O           8.015674   -0.978650   -0.475839 O         1 UNL       -0.7320 ****
 57 H           8.228343   -1.092982    0.461123 H         1 UNL        0.4048 ****
 58 C          -4.573900    0.017182   -1.264520 C         1 UNL       -0.0941 ****
 59 H          -4.524067    1.111124   -1.312029 H         1 UNL        0.0023 ****
 60 H          -4.366658   -0.340806   -2.284243 H         1 UNL        0.0023 ****
 61 C          -6.021054   -0.367775   -0.896570 C         1 UNL        0.1135 ****
 62 H          -6.672900    0.031236   -1.684027 H         1 UNL       -0.0291 ****
 63 H          -6.144264   -1.456533   -0.932638 H         1 UNL       -0.0291 ****
 64 C          -6.484310    0.168522    0.468038 C         1 UNL       -0.1179 ****
 65 H          -6.275553    1.247753    0.509818 H         1 UNL        0.0048 ****
 66 H          -5.878418   -0.287102    1.262640 H         1 UNL        0.0048 ****
 67 C          -7.974820   -0.050772    0.821054 C         1 UNL        0.4176 ****
 68 H          -8.111868    0.375837    1.825799 H         1 UNL       -0.0870 ****
 69 C          -8.927885    0.703981   -0.120699 C         1 UNL       -0.2868 ****
 70 H          -8.901885    0.296013   -1.137659 H         1 UNL        0.0541 ****
 71 H          -9.962694    0.630581    0.232971 H         1 UNL        0.0541 ****
 72 H          -8.670158    1.767972   -0.180130 H         1 UNL        0.0541 ****
 73 C          -8.349424   -1.539754    0.908196 C         1 UNL       -0.2899 ****
 74 H          -8.297911   -2.027201   -0.072230 H         1 UNL        0.0543 ****
 75 H          -9.372651   -1.663313    1.281001 H         1 UNL        0.0543 ****
 76 H          -7.679542   -2.080941    1.586854 H         1 UNL        0.0543 ****
@<TRIPOS>BOND
    1     1     2 1
    2     1     3 1
    3     1    11 1
    4     1    56 1
    5     3     4 1
    6     3     5 1
    7     3     6 1
    8     6     7 1
    9     6    14 1
   10     7     8 1
   11     7    20 1
   12     7    49 1
   13     8     9 1
   14     8    10 1
   15     8    11 1
   16    11    12 1
   17    11    13 1
   18    14    15 1
   19    14    16 1
   20    16    17 1
   21    16    18 1
   22    16    53 1
   23    18    19 1
   24    18    20 1
   25    18    29 1
   26    20    21 1
   27    20    22 1
   28    22    23 1
   29    22    24 1
   30    22    25 1
   31    25    26 1
   32    25    27 1
   33    25    28 1
   34    28    29 1
   35    28    37 1
   36    28    39 1
   37    29    30 1
   38    29    31 1
   39    31    32 1
   40    31    33 1
   41    31    34 1
   42    34    35 1
   43    34    36 1
   44    34    37 1
   45    37    38 1
   46    37    43 1
   47    39    40 1
   48    39    41 1
   49    39    42 1
   50    43    44 1
   51    43    45 1
   52    43    58 1
   53    45    46 1
   54    45    47 1
   55    45    48 1
   56    49    50 1
   57    49    51 1
   58    49    52 1
   59    53    54 1
   60    54    55 1
   61    56    57 1
   62    58    59 1
   63    58    60 1
   64    58    61 1
   65    61    62 1
   66    61    63 1
   67    61    64 1
   68    64    65 1
   69    64    66 1
   70    64    67 1
   71    67    68 1
   72    67    69 1
   73    67    73 1
   74    69    70 1
   75    69    71 1
   76    69    72 1
   77    73    74 1
   78    73    75 1
   79    73    76 1
@<TRIPOS>SUBSTRUCTURE
      1  UNL              1 ****               0 ****  ****  


