@<TRIPOS>MOLECULE
UNL
   76    79     1     0     1
SMALL
USER_CHARGES
@<TRIPOS>ATOM
  1 C           5.976325   -1.534707   -1.231260 C         1 UNL        0.4631 ****
  2 H           5.484781   -1.869219   -2.153012 H         1 UNL        0.0087 ****
  3 C           5.654483   -0.050968   -1.002864 C         1 UNL       -0.1309 ****
  4 H           5.977234    0.535979   -1.868569 H         1 UNL        0.0508 ****
  5 H           6.257304    0.291156   -0.145912 H         1 UNL        0.0508 ****
  6 C           4.185624    0.196682   -0.717102 C         1 UNL       -0.1086 ****
  7 C           3.523845   -0.660376    0.367735 C         1 UNL        0.3596 ****
  8 C           3.954445   -2.145600    0.156589 C         1 UNL       -0.1159 ****
  9 H           3.422142   -2.536960   -0.721516 H         1 UNL        0.0287 ****
 10 H           3.623911   -2.744652    1.011400 H         1 UNL        0.0287 ****
 11 C           5.460009   -2.364971   -0.057179 C         1 UNL       -0.1534 ****
 12 H           6.021438   -2.091899    0.848722 H         1 UNL        0.0373 ****
 13 H           5.660382   -3.426377   -0.242418 H         1 UNL        0.0373 ****
 14 C           3.517698    1.141492   -1.392627 C         1 UNL       -0.3956 ****
 15 H           4.027649    1.705267   -2.174551 H         1 UNL        0.1796 ****
 16 C           2.085964    1.528434   -1.165928 C         1 UNL        0.4623 ****
 17 H           1.494992    1.284399   -2.063776 H         1 UNL       -0.0404 ****
 18 C           1.440820    0.884548    0.070659 C         1 UNL        0.1258 ****
 19 H           1.747069    1.484730    0.934401 H         1 UNL       -0.0202 ****
 20 C           1.962982   -0.570073    0.236675 C         1 UNL       -0.1120 ****
 21 H           1.717243   -1.088877   -0.704880 H         1 UNL       -0.0458 ****
 22 C           1.210274   -1.315867    1.362349 C         1 UNL        0.1199 ****
 23 H           1.509642   -0.914427    2.336584 H         1 UNL       -0.0214 ****
 24 H           1.506730   -2.370483    1.366352 H         1 UNL       -0.0214 ****
 25 C          -0.325045   -1.244377    1.248385 C         1 UNL       -0.2187 ****
 26 H          -0.649161   -1.782663    0.345840 H         1 UNL        0.0210 ****
 27 H          -0.760990   -1.775822    2.100384 H         1 UNL        0.0210 ****
 28 C          -0.828887    0.209677    1.164155 C         1 UNL        0.4137 ****
 29 C          -0.094168    0.869774   -0.038660 C         1 UNL        0.0850 ****
 30 H          -0.324623    0.222228   -0.903129 H         1 UNL       -0.0460 ****
 31 C          -0.852836    2.188124   -0.267515 C         1 UNL       -0.0961 ****
 32 H          -0.745299    2.559086   -1.290063 H         1 UNL        0.0185 ****
 33 H          -0.464051    2.976789    0.384601 H         1 UNL        0.0185 ****
 34 C          -2.323156    1.833786    0.086272 C         1 UNL       -0.0597 ****
 35 H          -2.733220    2.557407    0.800716 H         1 UNL        0.0146 ****
 36 H          -2.970938    1.873923   -0.795471 H         1 UNL        0.0146 ****
 37 C          -2.317317    0.399753    0.709197 C         1 UNL       -0.0439 ****
 38 H          -2.472861   -0.325483   -0.103389 H         1 UNL       -0.0320 ****
 39 C          -0.571881    0.954090    2.494134 C         1 UNL       -0.4528 ****
 40 H           0.491527    1.016318    2.738351 H         1 UNL        0.0908 ****
 41 H          -0.955580    1.978158    2.470811 H         1 UNL        0.0908 ****
 42 H          -1.064564    0.438457    3.325376 H         1 UNL        0.0908 ****
 43 C          -3.460617    0.194254    1.734087 C         1 UNL        0.2865 ****
 44 H          -3.310286    0.925392    2.541811 H         1 UNL       -0.0643 ****
 45 C          -3.475040   -1.203620    2.381142 C         1 UNL       -0.3027 ****
 46 H          -3.449223   -2.002424    1.631495 H         1 UNL        0.0608 ****
 47 H          -4.384442   -1.339205    2.978634 H         1 UNL        0.0608 ****
 48 H          -2.623644   -1.353798    3.049857 H         1 UNL        0.0608 ****
 49 C           4.016872   -0.165171    1.753481 C         1 UNL       -0.0948 ****
 50 H           3.688140   -0.834110    2.554756 H         1 UNL        0.0041 ****
 51 H           5.108590   -0.122370    1.797924 H         1 UNL        0.0041 ****
 52 H           3.645205    0.840870    1.968155 H         1 UNL        0.0041 ****
 53 O           1.946242    2.971833   -1.182117 O         1 UNL       -0.3317 ****
 54 O           2.639868    3.532145   -0.028260 O         1 UNL       -0.4042 ****
 55 H           3.453740    3.861546   -0.443492 H         1 UNL        0.3900 ****
 56 O           7.368682   -1.742618   -1.482346 O         1 UNL       -0.7320 ****
 57 H           7.866867   -1.495290   -0.690614 H         1 UNL        0.4048 ****
 58 C          -4.852957    0.524172    1.131905 C         1 UNL       -0.0941 ****
 59 H          -5.590806    0.449171    1.943656 H         1 UNL        0.0023 ****
 60 H          -4.870967    1.573017    0.810616 H         1 UNL        0.0023 ****
 61 C          -5.325088   -0.356534   -0.037223 C         1 UNL        0.1135 ****
 62 H          -4.618584   -0.271201   -0.871878 H         1 UNL       -0.0291 ****
 63 H          -5.318382   -1.409819    0.268251 H         1 UNL       -0.0291 ****
 64 C          -6.734031    0.032393   -0.514808 C         1 UNL       -0.1179 ****
 65 H          -6.727778    1.094834   -0.798670 H         1 UNL        0.0048 ****
 66 H          -7.427130   -0.048499    0.335173 H         1 UNL        0.0048 ****
 67 C          -7.316020   -0.781235   -1.694263 C         1 UNL        0.4176 ****
 68 H          -8.314882   -0.361708   -1.885568 H         1 UNL       -0.0870 ****
 69 C          -6.502332   -0.614942   -2.988471 C         1 UNL       -0.2868 ****
 70 H          -5.507726   -1.067533   -2.902085 H         1 UNL        0.0541 ****
 71 H          -7.008380   -1.098386   -3.831977 H         1 UNL        0.0541 ****
 72 H          -6.367522    0.443183   -3.242016 H         1 UNL        0.0541 ****
 73 C          -7.509613   -2.267619   -1.350898 C         1 UNL       -0.2899 ****
 74 H          -6.550156   -2.777449   -1.205836 H         1 UNL        0.0543 ****
 75 H          -8.037346   -2.788785   -2.157861 H         1 UNL        0.0543 ****
 76 H          -8.096510   -2.392075   -0.433190 H         1 UNL        0.0543 ****
@<TRIPOS>BOND
    1     1     2 1
    2     1     3 1
    3     1    11 1
    4     1    56 1
    5     3     4 1
    6     3     5 1
    7     3     6 1
    8     6     7 1
    9     6    14 1
   10     7     8 1
   11     7    20 1
   12     7    49 1
   13     8     9 1
   14     8    10 1
   15     8    11 1
   16    11    12 1
   17    11    13 1
   18    14    15 1
   19    14    16 1
   20    16    17 1
   21    16    18 1
   22    16    53 1
   23    18    19 1
   24    18    20 1
   25    18    29 1
   26    20    21 1
   27    20    22 1
   28    22    23 1
   29    22    24 1
   30    22    25 1
   31    25    26 1
   32    25    27 1
   33    25    28 1
   34    28    29 1
   35    28    37 1
   36    28    39 1
   37    29    30 1
   38    29    31 1
   39    31    32 1
   40    31    33 1
   41    31    34 1
   42    34    35 1
   43    34    36 1
   44    34    37 1
   45    37    38 1
   46    37    43 1
   47    39    40 1
   48    39    41 1
   49    39    42 1
   50    43    44 1
   51    43    45 1
   52    43    58 1
   53    45    46 1
   54    45    47 1
   55    45    48 1
   56    49    50 1
   57    49    51 1
   58    49    52 1
   59    53    54 1
   60    54    55 1
   61    56    57 1
   62    58    59 1
   63    58    60 1
   64    58    61 1
   65    61    62 1
   66    61    63 1
   67    61    64 1
   68    64    65 1
   69    64    66 1
   70    64    67 1
   71    67    68 1
   72    67    69 1
   73    67    73 1
   74    69    70 1
   75    69    71 1
   76    69    72 1
   77    73    74 1
   78    73    75 1
   79    73    76 1
@<TRIPOS>SUBSTRUCTURE
      1  UNL              1 ****               0 ****  ****  


