@<TRIPOS>MOLECULE
UNL
   76    79     1     0     1
SMALL
USER_CHARGES
@<TRIPOS>ATOM
  1 C           6.588692   -0.912455   -0.455642 C         1 UNL        0.4631 ****
  2 H           6.474728   -0.718292   -1.529208 H         1 UNL        0.0087 ****
  3 C           6.004569    0.269120    0.330919 C         1 UNL       -0.1309 ****
  4 H           6.501842    1.196898    0.032040 H         1 UNL        0.0508 ****
  5 H           6.243582    0.111687    1.395463 H         1 UNL        0.0508 ****
  6 C           4.502583    0.401888    0.162260 C         1 UNL       -0.1086 ****
  7 C           3.657814   -0.854796    0.394701 C         1 UNL        0.3596 ****
  8 C           4.333963   -2.050988   -0.344986 C         1 UNL       -0.1159 ****
  9 H           4.173789   -1.922667   -1.424601 H         1 UNL        0.0287 ****
 10 H           3.833265   -2.984070   -0.065644 H         1 UNL        0.0287 ****
 11 C           5.843164   -2.197551   -0.096817 C         1 UNL       -0.1534 ****
 12 H           6.037815   -2.441671    0.958040 H         1 UNL        0.0373 ****
 13 H           6.240474   -3.029492   -0.689368 H         1 UNL        0.0373 ****
 14 C           3.964982    1.585641   -0.160164 C         1 UNL       -0.3956 ****
 15 H           4.611154    2.445350   -0.322979 H         1 UNL        0.1796 ****
 16 C           2.496959    1.869085   -0.284441 C         1 UNL        0.4623 ****
 17 H           2.252851    2.154330   -1.319564 H         1 UNL       -0.0404 ****
 18 C           1.585132    0.719700    0.175598 C         1 UNL        0.1258 ****
 19 H           1.503837    0.797021    1.267841 H         1 UNL       -0.0202 ****
 20 C           2.223725   -0.646445   -0.201624 C         1 UNL       -0.1120 ****
 21 H           2.359945   -0.620929   -1.295110 H         1 UNL       -0.0458 ****
 22 C           1.258217   -1.814824    0.101212 C         1 UNL        0.1199 ****
 23 H           1.169309   -1.948898    1.184763 H         1 UNL       -0.0214 ****
 24 H           1.681588   -2.748479   -0.284578 H         1 UNL       -0.0214 ****
 25 C          -0.152469   -1.640082   -0.493511 C         1 UNL       -0.2187 ****
 26 H          -0.090372   -1.656678   -1.591271 H         1 UNL        0.0210 ****
 27 H          -0.758746   -2.504006   -0.204392 H         1 UNL        0.0210 ****
 28 C          -0.802983   -0.311928   -0.056748 C         1 UNL        0.4137 ****
 29 C           0.186229    0.820131   -0.460616 C         1 UNL        0.0850 ****
 30 H           0.345350    0.686431   -1.544501 H         1 UNL       -0.0460 ****
 31 C          -0.632393    2.110466   -0.299491 C         1 UNL       -0.0961 ****
 32 H          -0.243289    2.927869   -0.914535 H         1 UNL        0.0185 ****
 33 H          -0.604867    2.461067    0.737111 H         1 UNL        0.0185 ****
 34 C          -2.066772    1.691934   -0.720302 C         1 UNL       -0.0597 ****
 35 H          -2.799621    2.009817    0.030865 H         1 UNL        0.0146 ****
 36 H          -2.361203    2.170871   -1.659000 H         1 UNL        0.0146 ****
 37 C          -2.074015    0.132295   -0.862548 C         1 UNL       -0.0439 ****
 38 H          -1.865936   -0.113607   -1.916262 H         1 UNL       -0.0320 ****
 39 C          -1.102414   -0.319221    1.459832 C         1 UNL       -0.4528 ****
 40 H          -0.197571   -0.429011    2.062879 H         1 UNL        0.0908 ****
 41 H          -1.595292    0.602088    1.784152 H         1 UNL        0.0908 ****
 42 H          -1.764988   -1.151642    1.718323 H         1 UNL        0.0908 ****
 43 C          -3.455509   -0.488312   -0.525193 C         1 UNL        0.2865 ****
 44 H          -3.704514   -0.197847    0.505233 H         1 UNL       -0.0643 ****
 45 C          -3.471164   -2.024464   -0.602613 C         1 UNL       -0.3027 ****
 46 H          -3.156119   -2.372039   -1.594725 H         1 UNL        0.0608 ****
 47 H          -4.474390   -2.420199   -0.417897 H         1 UNL        0.0608 ****
 48 H          -2.809806   -2.481504    0.136502 H         1 UNL        0.0608 ****
 49 C           3.610984   -1.143744    1.919008 C         1 UNL       -0.0948 ****
 50 H           3.149536   -2.114032    2.127675 H         1 UNL        0.0041 ****
 51 H           4.614106   -1.164427    2.352774 H         1 UNL        0.0041 ****
 52 H           3.047721   -0.371616    2.451399 H         1 UNL        0.0041 ****
 53 O           2.140288    2.990917    0.562494 O         1 UNL       -0.3317 ****
 54 O           2.767428    4.186076    0.007050 O         1 UNL       -0.4042 ****
 55 H           1.978892    4.685255   -0.262341 H         1 UNL        0.3900 ****
 56 O           8.002138   -1.029383   -0.269862 O         1 UNL       -0.7320 ****
 57 H           8.178326   -1.196342    0.666764 H         1 UNL        0.4048 ****
 58 C          -4.538549    0.109162   -1.460241 C         1 UNL       -0.0941 ****
 59 H          -4.481271    1.203223   -1.423762 H         1 UNL        0.0023 ****
 60 H          -4.291195   -0.174045   -2.494377 H         1 UNL        0.0023 ****
 61 C          -6.000100   -0.290552   -1.178940 C         1 UNL        0.1135 ****
 62 H          -6.627106    0.180132   -1.949586 H         1 UNL       -0.0291 ****
 63 H          -6.129196   -1.370766   -1.311835 H         1 UNL       -0.0291 ****
 64 C          -6.519758    0.138407    0.202239 C         1 UNL       -0.1179 ****
 65 H          -6.263529    1.196713    0.357671 H         1 UNL        0.0048 ****
 66 H          -5.996658   -0.419445    0.992441 H         1 UNL        0.0048 ****
 67 C          -8.039071   -0.029026    0.409952 C         1 UNL        0.4176 ****
 68 H          -8.546372    0.514748   -0.402103 H         1 UNL       -0.0870 ****
 69 C          -8.484722   -1.498844    0.341839 C         1 UNL       -0.2868 ****
 70 H          -7.983816   -2.092774    1.117612 H         1 UNL        0.0541 ****
 71 H          -9.565072   -1.588034    0.503046 H         1 UNL        0.0541 ****
 72 H          -8.257687   -1.954579   -0.627126 H         1 UNL        0.0541 ****
 73 C          -8.475328    0.603795    1.740803 C         1 UNL       -0.2899 ****
 74 H          -7.996830    0.098211    2.589466 H         1 UNL        0.0543 ****
 75 H          -9.559913    0.529921    1.880079 H         1 UNL        0.0543 ****
 76 H          -8.202173    1.664227    1.788245 H         1 UNL        0.0543 ****
@<TRIPOS>BOND
    1     1     2 1
    2     1     3 1
    3     1    11 1
    4     1    56 1
    5     3     4 1
    6     3     5 1
    7     3     6 1
    8     6     7 1
    9     6    14 1
   10     7     8 1
   11     7    20 1
   12     7    49 1
   13     8     9 1
   14     8    10 1
   15     8    11 1
   16    11    12 1
   17    11    13 1
   18    14    15 1
   19    14    16 1
   20    16    17 1
   21    16    18 1
   22    16    53 1
   23    18    19 1
   24    18    20 1
   25    18    29 1
   26    20    21 1
   27    20    22 1
   28    22    23 1
   29    22    24 1
   30    22    25 1
   31    25    26 1
   32    25    27 1
   33    25    28 1
   34    28    29 1
   35    28    37 1
   36    28    39 1
   37    29    30 1
   38    29    31 1
   39    31    32 1
   40    31    33 1
   41    31    34 1
   42    34    35 1
   43    34    36 1
   44    34    37 1
   45    37    38 1
   46    37    43 1
   47    39    40 1
   48    39    41 1
   49    39    42 1
   50    43    44 1
   51    43    45 1
   52    43    58 1
   53    45    46 1
   54    45    47 1
   55    45    48 1
   56    49    50 1
   57    49    51 1
   58    49    52 1
   59    53    54 1
   60    54    55 1
   61    56    57 1
   62    58    59 1
   63    58    60 1
   64    58    61 1
   65    61    62 1
   66    61    63 1
   67    61    64 1
   68    64    65 1
   69    64    66 1
   70    64    67 1
   71    67    68 1
   72    67    69 1
   73    67    73 1
   74    69    70 1
   75    69    71 1
   76    69    72 1
   77    73    74 1
   78    73    75 1
   79    73    76 1
@<TRIPOS>SUBSTRUCTURE
      1  UNL              1 ****               0 ****  ****  


