@<TRIPOS>MOLECULE
UNL
   76    79     1     0     1
SMALL
USER_CHARGES
@<TRIPOS>ATOM
  1 C           5.462748   -2.225015   -0.315266 C         1 UNL        0.4631 ****
  2 H           4.992400   -2.748984   -1.156323 H         1 UNL        0.0087 ****
  3 C           5.366847   -0.711130   -0.552492 C         1 UNL       -0.1309 ****
  4 H           5.841060   -0.454340   -1.505004 H         1 UNL        0.0508 ****
  5 H           5.953101   -0.213699    0.237228 H         1 UNL        0.0508 ****
  6 C           3.939842   -0.198321   -0.519958 C         1 UNL       -0.1086 ****
  7 C           3.073034   -0.600550    0.678564 C         1 UNL        0.3596 ****
  8 C           3.273840   -2.125265    0.944627 C         1 UNL       -0.1159 ****
  9 H           2.750322   -2.684258    0.156560 H         1 UNL        0.0287 ****
 10 H           2.790967   -2.396041    1.889243 H         1 UNL        0.0287 ****
 11 C           4.736172   -2.595510    0.976733 C         1 UNL       -0.1534 ****
 12 H           5.267130   -2.144171    1.828088 H         1 UNL        0.0373 ****
 13 H           4.776470   -3.681048    1.121742 H         1 UNL        0.0373 ****
 14 C           3.482180    0.583702   -1.506944 C         1 UNL       -0.3956 ****
 15 H           4.130805    0.818079   -2.351714 H         1 UNL        0.1796 ****
 16 C           2.118404    1.206419   -1.565092 C         1 UNL        0.4623 ****
 17 H           1.560338    0.786020   -2.417615 H         1 UNL       -0.0404 ****
 18 C           1.294024    1.052084   -0.278079 C         1 UNL        0.1258 ****
 19 H           1.637439    1.832559    0.409201 H         1 UNL       -0.0202 ****
 20 C           1.560269   -0.346101    0.348944 C         1 UNL       -0.1120 ****
 21 H           1.302363   -1.081429   -0.431404 H         1 UNL       -0.0458 ****
 22 C           0.619125   -0.623703    1.544489 C         1 UNL        0.1199 ****
 23 H           0.902894    0.005623    2.394749 H         1 UNL       -0.0214 ****
 24 H           0.746346   -1.659254    1.878241 H         1 UNL       -0.0214 ****
 25 C          -0.871921   -0.392948    1.231471 C         1 UNL       -0.2187 ****
 26 H          -1.201535   -1.125865    0.481678 H         1 UNL        0.0210 ****
 27 H          -1.456390   -0.587271    2.138490 H         1 UNL        0.0210 ****
 28 C          -1.129267    1.026195    0.692564 C         1 UNL        0.4137 ****
 29 C          -0.211391    1.216103   -0.552548 C         1 UNL        0.0850 ****
 30 H          -0.477615    0.390080   -1.234827 H         1 UNL       -0.0460 ****
 31 C          -0.731696    2.510970   -1.206501 C         1 UNL       -0.0961 ****
 32 H          -0.496951    2.561499   -2.272773 H         1 UNL        0.0185 ****
 33 H          -0.263428    3.388594   -0.749361 H         1 UNL        0.0185 ****
 34 C          -2.261958    2.477005   -0.932620 C         1 UNL       -0.0597 ****
 35 H          -2.593288    3.413680   -0.472708 H         1 UNL        0.0146 ****
 36 H          -2.840933    2.369568   -1.856735 H         1 UNL        0.0146 ****
 37 C          -2.521844    1.260436    0.010561 C         1 UNL       -0.0439 ****
 38 H          -2.648532    0.390183   -0.648621 H         1 UNL       -0.0320 ****
 39 C          -0.828098    2.073978    1.789830 C         1 UNL       -0.4528 ****
 40 H           0.236094    2.117480    2.034868 H         1 UNL        0.0908 ****
 41 H          -1.128545    3.081658    1.493013 H         1 UNL        0.0908 ****
 42 H          -1.359854    1.829413    2.713908 H         1 UNL        0.0908 ****
 43 C          -3.867818    1.369163    0.783383 C         1 UNL        0.2865 ****
 44 H          -4.599678    1.593770   -0.007470 H         1 UNL       -0.0643 ****
 45 C          -3.995750    2.520803    1.801075 C         1 UNL       -0.3027 ****
 46 H          -3.472832    2.303818    2.737196 H         1 UNL        0.0608 ****
 47 H          -5.052024    2.674512    2.049851 H         1 UNL        0.0608 ****
 48 H          -3.611643    3.469721    1.415851 H         1 UNL        0.0608 ****
 49 C           3.538523    0.211769    1.916378 C         1 UNL       -0.0948 ****
 50 H           3.047928   -0.139094    2.829504 H         1 UNL        0.0041 ****
 51 H           4.616509    0.118254    2.074135 H         1 UNL        0.0041 ****
 52 H           3.321190    1.276768    1.794166 H         1 UNL        0.0041 ****
 53 O           2.212555    2.584294   -2.007160 O         1 UNL       -0.3317 ****
 54 O           2.905891    3.366231   -0.990037 O         1 UNL       -0.4042 ****
 55 H           3.787282    3.449217   -1.389467 H         1 UNL        0.3900 ****
 56 O           6.818375   -2.679813   -0.334215 O         1 UNL       -0.7320 ****
 57 H           7.290956   -2.277018    0.407826 H         1 UNL        0.4048 ****
 58 C          -4.333958    0.055602    1.458417 C         1 UNL       -0.0941 ****
 59 H          -3.628351   -0.205789    2.257324 H         1 UNL        0.0023 ****
 60 H          -5.286612    0.267352    1.965480 H         1 UNL        0.0023 ****
 61 C          -4.544380   -1.177111    0.557401 C         1 UNL        0.1135 ****
 62 H          -3.600779   -1.456406    0.075172 H         1 UNL       -0.0291 ****
 63 H          -4.806410   -2.018767    1.211117 H         1 UNL       -0.0291 ****
 64 C          -5.642004   -0.997436   -0.504571 C         1 UNL       -0.1179 ****
 65 H          -5.347774   -0.201691   -1.201760 H         1 UNL        0.0048 ****
 66 H          -6.556059   -0.641025   -0.006933 H         1 UNL        0.0048 ****
 67 C          -6.001151   -2.250580   -1.338333 C         1 UNL        0.4176 ****
 68 H          -6.779797   -1.928139   -2.045399 H         1 UNL       -0.0870 ****
 69 C          -4.817264   -2.764082   -2.174748 C         1 UNL       -0.2868 ****
 70 H          -4.017846   -3.163951   -1.540225 H         1 UNL        0.0541 ****
 71 H          -5.134732   -3.569803   -2.846504 H         1 UNL        0.0541 ****
 72 H          -4.387874   -1.965553   -2.791284 H         1 UNL        0.0541 ****
 73 C          -6.606916   -3.379456   -0.487721 C         1 UNL       -0.2899 ****
 74 H          -5.872319   -3.804577    0.205810 H         1 UNL        0.0543 ****
 75 H          -6.964562   -4.196807   -1.124346 H         1 UNL        0.0543 ****
 76 H          -7.457358   -3.020681    0.103941 H         1 UNL        0.0543 ****
@<TRIPOS>BOND
    1     1     2 1
    2     1     3 1
    3     1    11 1
    4     1    56 1
    5     3     4 1
    6     3     5 1
    7     3     6 1
    8     6     7 1
    9     6    14 1
   10     7     8 1
   11     7    20 1
   12     7    49 1
   13     8     9 1
   14     8    10 1
   15     8    11 1
   16    11    12 1
   17    11    13 1
   18    14    15 1
   19    14    16 1
   20    16    17 1
   21    16    18 1
   22    16    53 1
   23    18    19 1
   24    18    20 1
   25    18    29 1
   26    20    21 1
   27    20    22 1
   28    22    23 1
   29    22    24 1
   30    22    25 1
   31    25    26 1
   32    25    27 1
   33    25    28 1
   34    28    29 1
   35    28    37 1
   36    28    39 1
   37    29    30 1
   38    29    31 1
   39    31    32 1
   40    31    33 1
   41    31    34 1
   42    34    35 1
   43    34    36 1
   44    34    37 1
   45    37    38 1
   46    37    43 1
   47    39    40 1
   48    39    41 1
   49    39    42 1
   50    43    44 1
   51    43    45 1
   52    43    58 1
   53    45    46 1
   54    45    47 1
   55    45    48 1
   56    49    50 1
   57    49    51 1
   58    49    52 1
   59    53    54 1
   60    54    55 1
   61    56    57 1
   62    58    59 1
   63    58    60 1
   64    58    61 1
   65    61    62 1
   66    61    63 1
   67    61    64 1
   68    64    65 1
   69    64    66 1
   70    64    67 1
   71    67    68 1
   72    67    69 1
   73    67    73 1
   74    69    70 1
   75    69    71 1
   76    69    72 1
   77    73    74 1
   78    73    75 1
   79    73    76 1
@<TRIPOS>SUBSTRUCTURE
      1  UNL              1 ****               0 ****  ****  


