@<TRIPOS>MOLECULE
UNL
   76    79     1     0     1
SMALL
USER_CHARGES
@<TRIPOS>ATOM
  1 C           6.524798   -0.530690   -0.477608 C         1 UNL        0.4631 ****
  2 H           6.379804   -0.426258   -1.559884 H         1 UNL        0.0087 ****
  3 C           5.835463    0.641079    0.234853 C         1 UNL       -0.1309 ****
  4 H           6.234921    1.589411   -0.137279 H         1 UNL        0.0508 ****
  5 H           6.101124    0.584292    1.303191 H         1 UNL        0.0508 ****
  6 C           4.325880    0.613890    0.085202 C         1 UNL       -0.1086 ****
  7 C           3.611928   -0.699840    0.418988 C         1 UNL        0.3596 ****
  8 C           4.395605   -1.873986   -0.246274 C         1 UNL       -0.1159 ****
  9 H           4.211924   -1.840162   -1.329229 H         1 UNL        0.0287 ****
 10 H           3.993117   -2.829184    0.107220 H         1 UNL        0.0287 ****
 11 C           5.914520   -1.853510   -0.015519 C         1 UNL       -0.1534 ****
 12 H           6.144109   -2.000719    1.050240 H         1 UNL        0.0373 ****
 13 H           6.385768   -2.682980   -0.554969 H         1 UNL        0.0373 ****
 14 C           3.670174    1.713904   -0.307616 C         1 UNL       -0.3956 ****
 15 H           4.226285    2.619164   -0.540811 H         1 UNL        0.1796 ****
 16 C           2.180044    1.842897   -0.424512 C         1 UNL        0.4623 ****
 17 H           1.897789    2.031661   -1.471957 H         1 UNL       -0.0404 ****
 18 C           1.391255    0.643816    0.127085 C         1 UNL        0.1258 ****
 19 H           1.313004    0.787769    1.212779 H         1 UNL       -0.0202 ****
 20 C           2.158651   -0.675703   -0.166522 C         1 UNL       -0.1120 ****
 21 H           2.281248   -0.713258   -1.261261 H         1 UNL       -0.0458 ****
 22 C           1.316333   -1.908894    0.231398 C         1 UNL        0.1199 ****
 23 H           1.250608   -1.974460    1.322889 H         1 UNL       -0.0214 ****
 24 H           1.826491   -2.821382   -0.095475 H         1 UNL       -0.0214 ****
 25 C          -0.109645   -1.915735   -0.352326 C         1 UNL       -0.2187 ****
 26 H          -0.055218   -2.002702   -1.447178 H         1 UNL        0.0210 ****
 27 H          -0.624683   -2.812891    0.004528 H         1 UNL        0.0210 ****
 28 C          -0.885396   -0.630875    0.002222 C         1 UNL        0.4137 ****
 29 C          -0.016399    0.562285   -0.492325 C         1 UNL        0.0850 ****
 30 H           0.145702    0.370624   -1.567025 H         1 UNL       -0.0460 ****
 31 C          -0.957030    1.774180   -0.406257 C         1 UNL       -0.0961 ****
 32 H          -0.656034    2.581553   -1.081070 H         1 UNL        0.0185 ****
 33 H          -0.955291    2.196184    0.603730 H         1 UNL        0.0185 ****
 34 C          -2.346523    1.188993   -0.775766 C         1 UNL       -0.0597 ****
 35 H          -3.100015    1.484054   -0.035793 H         1 UNL        0.0146 ****
 36 H          -2.695521    1.571626   -1.739596 H         1 UNL        0.0146 ****
 37 C          -2.200462   -0.369883   -0.812963 C         1 UNL       -0.0439 ****
 38 H          -1.976844   -0.664920   -1.850736 H         1 UNL       -0.0320 ****
 39 C          -1.170398   -0.562940    1.520077 C         1 UNL       -0.4528 ****
 40 H          -0.254240   -0.541367    2.115637 H         1 UNL        0.0908 ****
 41 H          -1.749428    0.325612    1.788732 H         1 UNL        0.0908 ****
 42 H          -1.744987   -1.436751    1.844301 H         1 UNL        0.0908 ****
 43 C          -3.511439   -1.099393   -0.416532 C         1 UNL        0.2865 ****
 44 H          -3.779439   -0.768782    0.597171 H         1 UNL       -0.0643 ****
 45 C          -3.374430   -2.631365   -0.394185 C         1 UNL       -0.3027 ****
 46 H          -3.036359   -3.010579   -1.366940 H         1 UNL        0.0608 ****
 47 H          -4.330601   -3.112053   -0.167119 H         1 UNL        0.0608 ****
 48 H          -2.662721   -2.970330    0.361508 H         1 UNL        0.0608 ****
 49 C           3.608932   -0.882706    1.960346 C         1 UNL       -0.0948 ****
 50 H           3.246434   -1.875737    2.244000 H         1 UNL        0.0041 ****
 51 H           4.613698   -0.775599    2.377386 H         1 UNL        0.0041 ****
 52 H           2.978542   -0.132692    2.447142 H         1 UNL        0.0041 ****
 53 O           1.723155    2.979482    0.351685 O         1 UNL       -0.3317 ****
 54 O           2.223369    4.189660   -0.292962 O         1 UNL       -0.4042 ****
 55 H           1.386488    4.590749   -0.579796 H         1 UNL        0.3900 ****
 56 O           7.944913   -0.494719   -0.310357 O         1 UNL       -0.7320 ****
 57 H           8.147655   -0.576124    0.632219 H         1 UNL        0.4048 ****
 58 C          -4.655064   -0.672204   -1.372407 C         1 UNL       -0.0941 ****
 59 H          -4.709056    0.421139   -1.400923 H         1 UNL        0.0023 ****
 60 H          -4.382742   -0.983970   -2.391936 H         1 UNL        0.0023 ****
 61 C          -6.062975   -1.220713   -1.064658 C         1 UNL        0.1135 ****
 62 H          -6.743800   -0.848470   -1.840803 H         1 UNL       -0.0291 ****
 63 H          -6.070992   -2.311808   -1.176327 H         1 UNL       -0.0291 ****
 64 C          -6.635197   -0.876574    0.323670 C         1 UNL       -0.1179 ****
 65 H          -6.008414   -1.338804    1.098406 H         1 UNL        0.0048 ****
 66 H          -7.622274   -1.353326    0.416759 H         1 UNL        0.0048 ****
 67 C          -6.792103    0.622613    0.655618 C         1 UNL        0.4176 ****
 68 H          -5.804251    1.098886    0.575109 H         1 UNL       -0.0870 ****
 69 C          -7.741380    1.343346   -0.314930 C         1 UNL       -0.2868 ****
 70 H          -8.740441    0.888861   -0.291258 H         1 UNL        0.0541 ****
 71 H          -7.851061    2.399307   -0.042907 H         1 UNL        0.0541 ****
 72 H          -7.382938    1.305675   -1.348677 H         1 UNL        0.0541 ****
 73 C          -7.270024    0.797820    2.106116 C         1 UNL       -0.2899 ****
 74 H          -8.259661    0.345065    2.248865 H         1 UNL        0.0543 ****
 75 H          -7.348065    1.857472    2.374894 H         1 UNL        0.0543 ****
 76 H          -6.581840    0.321933    2.814257 H         1 UNL        0.0543 ****
@<TRIPOS>BOND
    1     1     2 1
    2     1     3 1
    3     1    11 1
    4     1    56 1
    5     3     4 1
    6     3     5 1
    7     3     6 1
    8     6     7 1
    9     6    14 1
   10     7     8 1
   11     7    20 1
   12     7    49 1
   13     8     9 1
   14     8    10 1
   15     8    11 1
   16    11    12 1
   17    11    13 1
   18    14    15 1
   19    14    16 1
   20    16    17 1
   21    16    18 1
   22    16    53 1
   23    18    19 1
   24    18    20 1
   25    18    29 1
   26    20    21 1
   27    20    22 1
   28    22    23 1
   29    22    24 1
   30    22    25 1
   31    25    26 1
   32    25    27 1
   33    25    28 1
   34    28    29 1
   35    28    37 1
   36    28    39 1
   37    29    30 1
   38    29    31 1
   39    31    32 1
   40    31    33 1
   41    31    34 1
   42    34    35 1
   43    34    36 1
   44    34    37 1
   45    37    38 1
   46    37    43 1
   47    39    40 1
   48    39    41 1
   49    39    42 1
   50    43    44 1
   51    43    45 1
   52    43    58 1
   53    45    46 1
   54    45    47 1
   55    45    48 1
   56    49    50 1
   57    49    51 1
   58    49    52 1
   59    53    54 1
   60    54    55 1
   61    56    57 1
   62    58    59 1
   63    58    60 1
   64    58    61 1
   65    61    62 1
   66    61    63 1
   67    61    64 1
   68    64    65 1
   69    64    66 1
   70    64    67 1
   71    67    68 1
   72    67    69 1
   73    67    73 1
   74    69    70 1
   75    69    71 1
   76    69    72 1
   77    73    74 1
   78    73    75 1
   79    73    76 1
@<TRIPOS>SUBSTRUCTURE
      1  UNL              1 ****               0 ****  ****  


