@<TRIPOS>MOLECULE
UNL
   76    79     1     0     1
SMALL
USER_CHARGES
@<TRIPOS>ATOM
  1 C           5.874091   -2.194102   -0.690577 C         1 UNL        0.4631 ****
  2 H           5.614549   -2.246072   -1.755038 H         1 UNL        0.0087 ****
  3 C           5.797262   -0.732182   -0.227919 C         1 UNL       -0.1309 ****
  4 H           6.464727   -0.114895   -0.837479 H         1 UNL        0.0508 ****
  5 H           6.181832   -0.690020    0.804119 H         1 UNL        0.0508 ****
  6 C           4.386698   -0.175689   -0.264004 C         1 UNL       -0.1086 ****
  7 C           3.285375   -1.001153    0.410668 C         1 UNL        0.3596 ****
  8 C           3.458487   -2.494120   -0.010217 C         1 UNL       -0.1159 ****
  9 H           3.136586   -2.596599   -1.055890 H         1 UNL        0.0287 ****
 10 H           2.784428   -3.119666    0.583987 H         1 UNL        0.0287 ****
 11 C           4.887981   -3.044461    0.108709 C         1 UNL       -0.1534 ****
 12 H           5.205689   -3.066426    1.161778 H         1 UNL        0.0373 ****
 13 H           4.921075   -4.079305   -0.250539 H         1 UNL        0.0373 ****
 14 C           4.141035    0.999036   -0.859619 C         1 UNL       -0.3956 ****
 15 H           4.955329    1.533971   -1.349567 H         1 UNL        0.1796 ****
 16 C           2.809359    1.687991   -0.913261 C         1 UNL        0.4623 ****
 17 H           2.465275    1.738060   -1.959235 H         1 UNL       -0.0404 ****
 18 C           1.723598    1.041137   -0.040009 C         1 UNL        0.1258 ****
 19 H           1.886053    1.402718    0.980987 H         1 UNL       -0.0202 ****
 20 C           1.877576   -0.506098   -0.073922 C         1 UNL       -0.1120 ****
 21 H           1.815719   -0.792538   -1.137064 H         1 UNL       -0.0458 ****
 22 C           0.701985   -1.211572    0.642237 C         1 UNL        0.1199 ****
 23 H           0.777154   -1.052312    1.723302 H         1 UNL       -0.0214 ****
 24 H           0.776060   -2.293811    0.489660 H         1 UNL       -0.0214 ****
 25 C          -0.688913   -0.747283    0.168576 C         1 UNL       -0.2187 ****
 26 H          -0.833316   -1.041252   -0.881023 H         1 UNL        0.0210 ****
 27 H          -1.453425   -1.276284    0.748981 H         1 UNL        0.0210 ****
 28 C          -0.851910    0.779240    0.287087 C         1 UNL        0.4137 ****
 29 C           0.313218    1.427776   -0.518710 C         1 UNL        0.0850 ****
 30 H           0.224026    1.011842   -1.537478 H         1 UNL       -0.0460 ****
 31 C          -0.080973    2.914066   -0.616625 C         1 UNL       -0.0961 ****
 32 H           0.385601    3.413114   -1.469810 H         1 UNL        0.0185 ****
 33 H           0.248535    3.459914    0.273286 H         1 UNL        0.0185 ****
 34 C          -1.632181    2.880003   -0.719596 C         1 UNL       -0.0597 ****
 35 H          -2.082870    3.547927    0.021465 H         1 UNL        0.0146 ****
 36 H          -1.984913    3.227287   -1.697183 H         1 UNL        0.0146 ****
 37 C          -2.064944    1.398969   -0.486772 C         1 UNL       -0.0439 ****
 38 H          -2.035295    0.909720   -1.472523 H         1 UNL       -0.0320 ****
 39 C          -0.830553    1.203729    1.773954 C         1 UNL       -0.4528 ****
 40 H           0.145950    1.037087    2.235705 H         1 UNL        0.0908 ****
 41 H          -1.069856    2.261824    1.905559 H         1 UNL        0.0908 ****
 42 H          -1.560306    0.626042    2.348866 H         1 UNL        0.0908 ****
 43 C          -3.548828    1.248217   -0.039710 C         1 UNL        0.2865 ****
 44 H          -4.102715    1.804367   -0.814130 H         1 UNL       -0.0643 ****
 45 C          -3.940525    1.890520    1.306492 C         1 UNL       -0.3027 ****
 46 H          -3.632813    1.276784    2.158562 H         1 UNL        0.0608 ****
 47 H          -5.026670    2.011195    1.368556 H         1 UNL        0.0608 ****
 48 H          -3.502539    2.884288    1.436097 H         1 UNL        0.0608 ****
 49 C           3.445290   -0.869679    1.948774 C         1 UNL       -0.0948 ****
 50 H           2.775353   -1.554237    2.478058 H         1 UNL        0.0041 ****
 51 H           4.464226   -1.106654    2.267048 H         1 UNL        0.0041 ****
 52 H           3.231770    0.150020    2.282082 H         1 UNL        0.0041 ****
 53 O           2.965041    3.106038   -0.652851 O         1 UNL       -0.3317 ****
 54 O           3.394579    3.293908    0.728082 O         1 UNL       -0.4042 ****
 55 H           4.340321    3.477017    0.604284 H         1 UNL        0.3900 ****
 56 O           7.210571   -2.699364   -0.631530 O         1 UNL       -0.7320 ****
 57 H           7.497222   -2.710574    0.292540 H         1 UNL        0.4048 ****
 58 C          -4.045651   -0.213069   -0.124471 C         1 UNL       -0.0941 ****
 59 H          -3.636057   -0.674666   -1.033805 H         1 UNL        0.0023 ****
 60 H          -3.640140   -0.788950    0.718710 H         1 UNL        0.0023 ****
 61 C          -5.574390   -0.376369   -0.146576 C         1 UNL        0.1135 ****
 62 H          -6.002573    0.015910    0.783277 H         1 UNL       -0.0291 ****
 63 H          -5.983444    0.237996   -0.960329 H         1 UNL       -0.0291 ****
 64 C          -6.001288   -1.841495   -0.331801 C         1 UNL       -0.1179 ****
 65 H          -5.554810   -2.441533    0.474519 H         1 UNL        0.0048 ****
 66 H          -5.563283   -2.219242   -1.267132 H         1 UNL        0.0048 ****
 67 C          -7.521757   -2.123189   -0.359696 C         1 UNL        0.4176 ****
 68 H          -7.624121   -3.208993   -0.504337 H         1 UNL       -0.0870 ****
 69 C          -8.213522   -1.778676    0.969787 C         1 UNL       -0.2868 ****
 70 H          -8.209923   -0.699219    1.160068 H         1 UNL        0.0541 ****
 71 H          -9.259883   -2.104692    0.960601 H         1 UNL        0.0541 ****
 72 H          -7.718474   -2.269229    1.816213 H         1 UNL        0.0541 ****
 73 C          -8.229032   -1.441919   -1.543001 C         1 UNL       -0.2899 ****
 74 H          -8.227139   -0.350563   -1.441274 H         1 UNL        0.0543 ****
 75 H          -9.275300   -1.761759   -1.608341 H         1 UNL        0.0543 ****
 76 H          -7.744052   -1.690010   -2.494525 H         1 UNL        0.0543 ****
@<TRIPOS>BOND
    1     1     2 1
    2     1     3 1
    3     1    11 1
    4     1    56 1
    5     3     4 1
    6     3     5 1
    7     3     6 1
    8     6     7 1
    9     6    14 1
   10     7     8 1
   11     7    20 1
   12     7    49 1
   13     8     9 1
   14     8    10 1
   15     8    11 1
   16    11    12 1
   17    11    13 1
   18    14    15 1
   19    14    16 1
   20    16    17 1
   21    16    18 1
   22    16    53 1
   23    18    19 1
   24    18    20 1
   25    18    29 1
   26    20    21 1
   27    20    22 1
   28    22    23 1
   29    22    24 1
   30    22    25 1
   31    25    26 1
   32    25    27 1
   33    25    28 1
   34    28    29 1
   35    28    37 1
   36    28    39 1
   37    29    30 1
   38    29    31 1
   39    31    32 1
   40    31    33 1
   41    31    34 1
   42    34    35 1
   43    34    36 1
   44    34    37 1
   45    37    38 1
   46    37    43 1
   47    39    40 1
   48    39    41 1
   49    39    42 1
   50    43    44 1
   51    43    45 1
   52    43    58 1
   53    45    46 1
   54    45    47 1
   55    45    48 1
   56    49    50 1
   57    49    51 1
   58    49    52 1
   59    53    54 1
   60    54    55 1
   61    56    57 1
   62    58    59 1
   63    58    60 1
   64    58    61 1
   65    61    62 1
   66    61    63 1
   67    61    64 1
   68    64    65 1
   69    64    66 1
   70    64    67 1
   71    67    68 1
   72    67    69 1
   73    67    73 1
   74    69    70 1
   75    69    71 1
   76    69    72 1
   77    73    74 1
   78    73    75 1
   79    73    76 1
@<TRIPOS>SUBSTRUCTURE
      1  UNL              1 ****               0 ****  ****  


