@<TRIPOS>MOLECULE
UNL
   76    79     1     0     1
SMALL
USER_CHARGES
@<TRIPOS>ATOM
  1 C           6.613288   -0.874330   -0.849814 C         1 UNL        0.4631 ****
  2 H           6.383409   -0.708832   -1.909536 H         1 UNL        0.0087 ****
  3 C           6.098064    0.319460   -0.034061 C         1 UNL       -0.1309 ****
  4 H           6.546815    1.245454   -0.406264 H         1 UNL        0.0508 ****
  5 H           6.450987    0.192157    1.002456 H         1 UNL        0.0508 ****
  6 C           4.584867    0.429272   -0.044926 C         1 UNL       -0.1086 ****
  7 C           3.788587   -0.831371    0.306346 C         1 UNL        0.3596 ****
  8 C           4.400247   -2.037339   -0.472604 C         1 UNL       -0.1159 ****
  9 H           4.124385   -1.938150   -1.531728 H         1 UNL        0.0287 ****
 10 H           3.946027   -2.969231   -0.119528 H         1 UNL        0.0287 ****
 11 C           5.929303   -2.159060   -0.383307 C         1 UNL       -0.1534 ****
 12 H           6.238641   -2.374319    0.650225 H         1 UNL        0.0373 ****
 13 H           6.273693   -3.000646   -0.995053 H         1 UNL        0.0373 ****
 14 C           3.998432    1.597557   -0.337226 C         1 UNL       -0.3956 ****
 15 H           4.610726    2.460635   -0.588864 H         1 UNL        0.1796 ****
 16 C           2.521461    1.859600   -0.311219 C         1 UNL        0.4623 ****
 17 H           2.164430    2.114929   -1.321070 H         1 UNL       -0.0404 ****
 18 C           1.681210    0.711351    0.271506 C         1 UNL        0.1258 ****
 19 H           1.716209    0.815491    1.363966 H         1 UNL       -0.0202 ****
 20 C           2.296123   -0.656252   -0.138341 C         1 UNL       -0.1120 ****
 21 H           2.314547   -0.657870   -1.240420 H         1 UNL       -0.0458 ****
 22 C           1.385934   -1.827734    0.295375 C         1 UNL        0.1199 ****
 23 H           1.414741   -1.933464    1.385282 H         1 UNL       -0.0214 ****
 24 H           1.779789   -2.766282   -0.109382 H         1 UNL       -0.0214 ****
 25 C          -0.082324   -1.686186   -0.149778 C         1 UNL       -0.2187 ****
 26 H          -0.136692   -1.730721   -1.247185 H         1 UNL        0.0210 ****
 27 H          -0.641780   -2.549360    0.223595 H         1 UNL        0.0210 ****
 28 C          -0.702538   -0.355065    0.320883 C         1 UNL        0.4137 ****
 29 C           0.220935    0.778351   -0.213472 C         1 UNL        0.0850 ****
 30 H           0.265473    0.619441   -1.304718 H         1 UNL       -0.0460 ****
 31 C          -0.595266    2.061885    0.003823 C         1 UNL       -0.0961 ****
 32 H          -0.285074    2.869268   -0.666762 H         1 UNL        0.0185 ****
 33 H          -0.464393    2.437236    1.023701 H         1 UNL        0.0185 ****
 34 C          -2.059324    1.615328   -0.254748 C         1 UNL       -0.0597 ****
 35 H          -2.715907    1.945800    0.559038 H         1 UNL        0.0146 ****
 36 H          -2.454480    2.064956   -1.170625 H         1 UNL        0.0146 ****
 37 C          -2.058915    0.052144   -0.354856 C         1 UNL       -0.0439 ****
 38 H          -1.961646   -0.220080   -1.418032 H         1 UNL       -0.0320 ****
 39 C          -0.838434   -0.326112    1.860612 C         1 UNL       -0.4528 ****
 40 H           0.127250   -0.407714    2.365853 H         1 UNL        0.0908 ****
 41 H          -1.308569    0.596855    2.212787 H         1 UNL        0.0908 ****
 42 H          -1.456233   -1.159882    2.209516 H         1 UNL        0.0908 ****
 43 C          -3.385998   -0.576382    0.145601 C         1 UNL        0.2865 ****
 44 H          -3.534255   -0.258673    1.189056 H         1 UNL       -0.0643 ****
 45 C          -3.382029   -2.115052    0.112991 C         1 UNL       -0.3027 ****
 46 H          -3.148504   -2.484966   -0.893393 H         1 UNL        0.0608 ****
 47 H          -4.358513   -2.519352    0.395389 H         1 UNL        0.0608 ****
 48 H          -2.650841   -2.541907    0.802915 H         1 UNL        0.0608 ****
 49 C           3.908260   -1.082410    1.833412 C         1 UNL       -0.0948 ****
 50 H           3.486926   -2.053213    2.112651 H         1 UNL        0.0041 ****
 51 H           4.951885   -1.078930    2.158546 H         1 UNL        0.0041 ****
 52 H           3.392148   -0.304788    2.404287 H         1 UNL        0.0041 ****
 53 O           2.240097    2.998533    0.541265 O         1 UNL       -0.3317 ****
 54 O           2.787298    4.186395   -0.106660 O         1 UNL       -0.4042 ****
 55 H           1.967513    4.669515   -0.301768 H         1 UNL        0.3900 ****
 56 O           8.040051   -0.969012   -0.812581 O         1 UNL       -0.7320 ****
 57 H           8.317035   -1.110014    0.103703 H         1 UNL        0.4048 ****
 58 C          -4.580400   -0.025168   -0.672898 C         1 UNL       -0.0941 ****
 59 H          -4.494304    1.064465   -0.751810 H         1 UNL        0.0023 ****
 60 H          -4.510306   -0.410217   -1.702022 H         1 UNL        0.0023 ****
 61 C          -5.974123   -0.342190   -0.105455 C         1 UNL        0.1135 ****
 62 H          -6.137361   -1.425579   -0.086301 H         1 UNL       -0.0291 ****
 63 H          -6.014903   -0.003584    0.938816 H         1 UNL       -0.0291 ****
 64 C          -7.095408    0.328567   -0.915946 C         1 UNL       -0.1179 ****
 65 H          -7.013858    0.002995   -1.963206 H         1 UNL        0.0048 ****
 66 H          -6.922887    1.414576   -0.922992 H         1 UNL        0.0048 ****
 67 C          -8.544138    0.070859   -0.439824 C         1 UNL        0.4176 ****
 68 H          -9.191686    0.631593   -1.130134 H         1 UNL       -0.0870 ****
 69 C          -8.949301   -1.408906   -0.544435 C         1 UNL       -0.2868 ****
 70 H          -8.390820   -2.032694    0.163007 H         1 UNL        0.0541 ****
 71 H         -10.014678   -1.537762   -0.321805 H         1 UNL        0.0541 ****
 72 H          -8.768960   -1.801916   -1.551968 H         1 UNL        0.0541 ****
 73 C          -8.809846    0.617905    0.972500 C         1 UNL       -0.2899 ****
 74 H          -8.246312    0.065239    1.733064 H         1 UNL        0.0543 ****
 75 H          -9.872127    0.534973    1.229192 H         1 UNL        0.0543 ****
 76 H          -8.529105    1.674901    1.050483 H         1 UNL        0.0543 ****
@<TRIPOS>BOND
    1     1     2 1
    2     1     3 1
    3     1    11 1
    4     1    56 1
    5     3     4 1
    6     3     5 1
    7     3     6 1
    8     6     7 1
    9     6    14 1
   10     7     8 1
   11     7    20 1
   12     7    49 1
   13     8     9 1
   14     8    10 1
   15     8    11 1
   16    11    12 1
   17    11    13 1
   18    14    15 1
   19    14    16 1
   20    16    17 1
   21    16    18 1
   22    16    53 1
   23    18    19 1
   24    18    20 1
   25    18    29 1
   26    20    21 1
   27    20    22 1
   28    22    23 1
   29    22    24 1
   30    22    25 1
   31    25    26 1
   32    25    27 1
   33    25    28 1
   34    28    29 1
   35    28    37 1
   36    28    39 1
   37    29    30 1
   38    29    31 1
   39    31    32 1
   40    31    33 1
   41    31    34 1
   42    34    35 1
   43    34    36 1
   44    34    37 1
   45    37    38 1
   46    37    43 1
   47    39    40 1
   48    39    41 1
   49    39    42 1
   50    43    44 1
   51    43    45 1
   52    43    58 1
   53    45    46 1
   54    45    47 1
   55    45    48 1
   56    49    50 1
   57    49    51 1
   58    49    52 1
   59    53    54 1
   60    54    55 1
   61    56    57 1
   62    58    59 1
   63    58    60 1
   64    58    61 1
   65    61    62 1
   66    61    63 1
   67    61    64 1
   68    64    65 1
   69    64    66 1
   70    64    67 1
   71    67    68 1
   72    67    69 1
   73    67    73 1
   74    69    70 1
   75    69    71 1
   76    69    72 1
   77    73    74 1
   78    73    75 1
   79    73    76 1
@<TRIPOS>SUBSTRUCTURE
      1  UNL              1 ****               0 ****  ****  


