@<TRIPOS>MOLECULE
UNL
   76    79     1     0     1
SMALL
USER_CHARGES
@<TRIPOS>ATOM
  1 C           6.288358   -0.856046   -1.402318 C         1 UNL        0.4631 ****
  2 H           5.894859   -0.706947   -2.415312 H         1 UNL        0.0087 ****
  3 C           5.897404    0.346350   -0.532081 C         1 UNL       -0.1309 ****
  4 H           6.276026    1.269399   -0.981538 H         1 UNL        0.0508 ****
  5 H           6.408044    0.235406    0.438499 H         1 UNL        0.0508 ****
  6 C           4.400047    0.447991   -0.309479 C         1 UNL       -0.1086 ****
  7 C           3.677073   -0.811751    0.177599 C         1 UNL        0.3596 ****
  8 C           4.170020   -2.025962   -0.669782 C         1 UNL       -0.1159 ****
  9 H           3.732154   -1.944735   -1.674461 H         1 UNL        0.0287 ****
 10 H           3.783922   -2.954964   -0.237068 H         1 UNL        0.0287 ****
 11 C           5.695267   -2.137623   -0.817789 C         1 UNL       -0.1534 ****
 12 H           6.163198   -2.336093    0.157853 H         1 UNL        0.0373 ****
 13 H           5.946916   -2.986109   -1.464202 H         1 UNL        0.0373 ****
 14 C           3.766867    1.609060   -0.522253 C         1 UNL       -0.3956 ****
 15 H           4.326471    2.471794   -0.876751 H         1 UNL        0.1796 ****
 16 C           2.309618    1.863304   -0.272200 C         1 UNL        0.4623 ****
 17 H           1.799488    2.101878   -1.218416 H         1 UNL       -0.0404 ****
 18 C           1.577696    0.719054    0.448229 C         1 UNL        0.1258 ****
 19 H           1.779210    0.839079    1.520873 H         1 UNL       -0.0202 ****
 20 C           2.132523   -0.651047   -0.033788 C         1 UNL       -0.1120 ****
 21 H           1.981206   -0.667101   -1.125475 H         1 UNL       -0.0458 ****
 22 C           1.308991   -1.822705    0.548359 C         1 UNL        0.1199 ****
 23 H           1.506367   -1.915248    1.621826 H         1 UNL       -0.0214 ****
 24 H           1.643310   -2.763544    0.098023 H         1 UNL       -0.0214 ****
 25 C          -0.211548   -1.695297    0.333287 C         1 UNL       -0.2187 ****
 26 H          -0.434299   -1.756325   -0.741815 H         1 UNL        0.0210 ****
 27 H          -0.701805   -2.554802    0.801385 H         1 UNL        0.0210 ****
 28 C          -0.760164   -0.361164    0.876474 C         1 UNL        0.4137 ****
 29 C           0.060056    0.770674    0.192134 C         1 UNL        0.0850 ****
 30 H          -0.060887    0.594658   -0.890555 H         1 UNL       -0.0460 ****
 31 C          -0.724971    2.053698    0.512048 C         1 UNL       -0.0961 ****
 32 H          -0.539384    2.844985   -0.221013 H         1 UNL        0.0185 ****
 33 H          -0.430403    2.457080    1.486017 H         1 UNL        0.0185 ****
 34 C          -2.207811    1.591053    0.515013 C         1 UNL       -0.0597 ****
 35 H          -2.708471    1.909364    1.436977 H         1 UNL        0.0146 ****
 36 H          -2.772154    2.037841   -0.309863 H         1 UNL        0.0146 ****
 37 C          -2.204909    0.031407    0.409128 C         1 UNL       -0.0439 ****
 38 H          -2.252767   -0.237003   -0.656545 H         1 UNL       -0.0320 ****
 39 C          -0.658861   -0.315965    2.418033 C         1 UNL       -0.4528 ****
 40 H           0.373111   -0.390234    2.770053 H         1 UNL        0.0908 ****
 41 H          -1.073111    0.609268    2.829487 H         1 UNL        0.0908 ****
 42 H          -1.212198   -1.148740    2.864768 H         1 UNL        0.0908 ****
 43 C          -3.431422   -0.611624    1.103293 C         1 UNL        0.2865 ****
 44 H          -3.383660   -0.338516    2.167544 H         1 UNL       -0.0643 ****
 45 C          -3.454404   -2.149946    1.027399 C         1 UNL       -0.3027 ****
 46 H          -3.334507   -2.510824   -0.000241 H         1 UNL        0.0608 ****
 47 H          -4.407855   -2.537136    1.405842 H         1 UNL        0.0608 ****
 48 H          -2.661333   -2.601697    1.628505 H         1 UNL        0.0608 ****
 49 C           4.033058   -1.039529    1.671115 C         1 UNL       -0.0948 ****
 50 H           3.664897   -2.007144    2.026234 H         1 UNL        0.0041 ****
 51 H           5.114440   -1.028322    1.830485 H         1 UNL        0.0041 ****
 52 H           3.607939   -0.254690    2.303752 H         1 UNL        0.0041 ****
 53 O           2.153719    3.012844    0.597951 O         1 UNL       -0.3317 ****
 54 O           2.585101    4.194320   -0.142477 O         1 UNL       -0.4042 ****
 55 H           1.740940    4.669132   -0.216553 H         1 UNL        0.3900 ****
 56 O           7.704172   -0.942393   -1.586679 O         1 UNL       -0.7320 ****
 57 H           8.121548   -1.069119   -0.723010 H         1 UNL        0.4048 ****
 58 C          -4.775194   -0.027245    0.587523 C         1 UNL       -0.0941 ****
 59 H          -5.572910   -0.454662    1.209040 H         1 UNL        0.0023 ****
 60 H          -4.798754    1.053707    0.775978 H         1 UNL        0.0023 ****
 61 C          -5.102783   -0.272847   -0.894946 C         1 UNL        0.1135 ****
 62 H          -4.289471    0.119607   -1.518523 H         1 UNL       -0.0291 ****
 63 H          -5.141455   -1.349847   -1.098618 H         1 UNL       -0.0291 ****
 64 C          -6.410454    0.392032   -1.366151 C         1 UNL       -0.1179 ****
 65 H          -6.497442    0.261246   -2.455093 H         1 UNL        0.0048 ****
 66 H          -6.330472    1.475812   -1.197490 H         1 UNL        0.0048 ****
 67 C          -7.720649   -0.105510   -0.718838 C         1 UNL        0.4176 ****
 68 H          -7.644793    0.035991    0.368692 H         1 UNL       -0.0870 ****
 69 C          -8.907418    0.739172   -1.209901 C         1 UNL       -0.2868 ****
 70 H          -9.038249    0.636396   -2.294898 H         1 UNL        0.0541 ****
 71 H          -9.843042    0.427190   -0.731912 H         1 UNL        0.0541 ****
 72 H          -8.757987    1.803013   -0.992357 H         1 UNL        0.0541 ****
 73 C          -7.975934   -1.597768   -0.983838 C         1 UNL       -0.2899 ****
 74 H          -8.038583   -1.796359   -2.061794 H         1 UNL        0.0543 ****
 75 H          -8.921327   -1.919150   -0.532113 H         1 UNL        0.0543 ****
 76 H          -7.183401   -2.232303   -0.574205 H         1 UNL        0.0543 ****
@<TRIPOS>BOND
    1     1     2 1
    2     1     3 1
    3     1    11 1
    4     1    56 1
    5     3     4 1
    6     3     5 1
    7     3     6 1
    8     6     7 1
    9     6    14 1
   10     7     8 1
   11     7    20 1
   12     7    49 1
   13     8     9 1
   14     8    10 1
   15     8    11 1
   16    11    12 1
   17    11    13 1
   18    14    15 1
   19    14    16 1
   20    16    17 1
   21    16    18 1
   22    16    53 1
   23    18    19 1
   24    18    20 1
   25    18    29 1
   26    20    21 1
   27    20    22 1
   28    22    23 1
   29    22    24 1
   30    22    25 1
   31    25    26 1
   32    25    27 1
   33    25    28 1
   34    28    29 1
   35    28    37 1
   36    28    39 1
   37    29    30 1
   38    29    31 1
   39    31    32 1
   40    31    33 1
   41    31    34 1
   42    34    35 1
   43    34    36 1
   44    34    37 1
   45    37    38 1
   46    37    43 1
   47    39    40 1
   48    39    41 1
   49    39    42 1
   50    43    44 1
   51    43    45 1
   52    43    58 1
   53    45    46 1
   54    45    47 1
   55    45    48 1
   56    49    50 1
   57    49    51 1
   58    49    52 1
   59    53    54 1
   60    54    55 1
   61    56    57 1
   62    58    59 1
   63    58    60 1
   64    58    61 1
   65    61    62 1
   66    61    63 1
   67    61    64 1
   68    64    65 1
   69    64    66 1
   70    64    67 1
   71    67    68 1
   72    67    69 1
   73    67    73 1
   74    69    70 1
   75    69    71 1
   76    69    72 1
   77    73    74 1
   78    73    75 1
   79    73    76 1
@<TRIPOS>SUBSTRUCTURE
      1  UNL              1 ****               0 ****  ****  


