@<TRIPOS>MOLECULE
UNL
   76    79     1     0     1
SMALL
USER_CHARGES
@<TRIPOS>ATOM
  1 C           5.814239   -1.880207   -0.826029 C         1 UNL        0.4631 ****
  2 H           5.403560   -2.176269   -1.799083 H         1 UNL        0.0087 ****
  3 C           5.618896   -0.368817   -0.639617 C         1 UNL       -0.1309 ****
  4 H           6.098418    0.171262   -1.462099 H         1 UNL        0.0508 ****
  5 H           6.148452   -0.076991    0.281922 H         1 UNL        0.0508 ****
  6 C           4.159177    0.028239   -0.529576 C         1 UNL       -0.1086 ****
  7 C           3.291717   -0.743721    0.470990 C         1 UNL        0.3596 ****
  8 C           3.591779   -2.267211    0.313464 C         1 UNL       -0.1159 ****
  9 H           3.129700   -2.614282   -0.621212 H         1 UNL        0.0287 ****
 10 H           3.104283   -2.819288    1.123607 H         1 UNL        0.0287 ****
 11 C           5.082130   -2.638920    0.279745 C         1 UNL       -0.1534 ****
 12 H           5.557540   -2.411325    1.245451 H         1 UNL        0.0373 ****
 13 H           5.194794   -3.717418    0.121036 H         1 UNL        0.0373 ****
 14 C           3.673849    1.025865   -1.280792 C         1 UNL       -0.3956 ****
 15 H           4.326180    1.525031   -1.998136 H         1 UNL        0.1796 ****
 16 C           2.272088    1.557645   -1.224448 C         1 UNL        0.4623 ****
 17 H           1.766727    1.359630   -2.183811 H         1 UNL       -0.0404 ****
 18 C           1.427657    1.001184   -0.068027 C         1 UNL        0.1258 ****
 19 H           1.698696    1.577471    0.822919 H         1 UNL       -0.0202 ****
 20 C           1.773915   -0.498201    0.157513 C         1 UNL       -0.1120 ****
 21 H           1.588526   -0.999669   -0.807030 H         1 UNL       -0.0458 ****
 22 C           0.823448   -1.155520    1.185722 C         1 UNL        0.1199 ****
 23 H           1.041896   -0.775856    2.189567 H         1 UNL       -0.0214 ****
 24 H           1.012533   -2.233891    1.222072 H         1 UNL       -0.0214 ****
 25 C          -0.671503   -0.933705    0.884926 C         1 UNL       -0.2187 ****
 26 H          -0.931293   -1.445024   -0.052690 H         1 UNL        0.0210 ****
 27 H          -1.263996   -1.408300    1.676045 H         1 UNL        0.0210 ****
 28 C          -1.011512    0.561935    0.751087 C         1 UNL        0.4137 ****
 29 C          -0.077926    1.146280   -0.351473 C         1 UNL        0.0850 ****
 30 H          -0.269429    0.529847   -1.247034 H         1 UNL       -0.0460 ****
 31 C          -0.669191    2.539501   -0.642514 C         1 UNL       -0.0961 ****
 32 H          -0.411910    2.899441   -1.641916 H         1 UNL        0.0185 ****
 33 H          -0.273593    3.280458    0.059582 H         1 UNL        0.0185 ****
 34 C          -2.199833    2.340486   -0.454698 C         1 UNL       -0.0597 ****
 35 H          -2.605832    3.089766    0.232716 H         1 UNL        0.0146 ****
 36 H          -2.746969    2.462296   -1.396259 H         1 UNL        0.0146 ****
 37 C          -2.399352    0.895480    0.101321 C         1 UNL       -0.0439 ****
 38 H          -2.449266    0.238509   -0.778264 H         1 UNL       -0.0320 ****
 39 C          -0.809791    1.276258    2.108137 C         1 UNL       -0.4528 ****
 40 H           0.242529    1.312238    2.400727 H         1 UNL        0.0908 ****
 41 H          -1.171076    2.307231    2.090518 H         1 UNL        0.0908 ****
 42 H          -1.345929    0.751746    2.904284 H         1 UNL        0.0908 ****
 43 C          -3.768636    0.704706    0.815395 C         1 UNL        0.2865 ****
 44 H          -4.492995    1.104156    0.088792 H         1 UNL       -0.0643 ****
 45 C          -3.997139    1.511028    2.109995 C         1 UNL       -0.3027 ****
 46 H          -3.485342    1.066037    2.968376 H         1 UNL        0.0608 ****
 47 H          -5.067131    1.529611    2.346807 H         1 UNL        0.0608 ****
 48 H          -3.665726    2.549891    2.024817 H         1 UNL        0.0608 ****
 49 C           3.666224   -0.282541    1.904761 C         1 UNL       -0.0948 ****
 50 H           3.179176   -0.904327    2.662230 H         1 UNL        0.0041 ****
 51 H           4.743758   -0.349169    2.078169 H         1 UNL        0.0041 ****
 52 H           3.376035    0.758537    2.072968 H         1 UNL        0.0041 ****
 53 O           2.281805    3.007197   -1.262868 O         1 UNL       -0.3317 ****
 54 O           2.892578    3.513523   -0.039266 O         1 UNL       -0.4042 ****
 55 H           3.776342    3.756591   -0.360470 H         1 UNL        0.3900 ****
 56 O           7.198368   -2.229547   -0.909910 O         1 UNL       -0.7320 ****
 57 H           7.622345   -2.021889   -0.065324 H         1 UNL        0.4048 ****
 58 C          -4.166578   -0.769926    1.069396 C         1 UNL       -0.0941 ****
 59 H          -3.462467   -1.215169    1.783800 H         1 UNL        0.0023 ****
 60 H          -5.135794   -0.763393    1.586398 H         1 UNL        0.0023 ****
 61 C          -4.270908   -1.697967   -0.156771 C         1 UNL        0.1135 ****
 62 H          -3.283875   -1.814012   -0.620045 H         1 UNL       -0.0291 ****
 63 H          -4.540869   -2.699820    0.201319 H         1 UNL       -0.0291 ****
 64 C          -5.263797   -1.263485   -1.252097 C         1 UNL       -0.1179 ****
 65 H          -5.221202   -2.001826   -2.066611 H         1 UNL        0.0048 ****
 66 H          -4.925514   -0.316196   -1.693237 H         1 UNL        0.0048 ****
 67 C          -6.738281   -1.101641   -0.825785 C         1 UNL        0.4176 ****
 68 H          -6.784700   -0.352268   -0.022341 H         1 UNL       -0.0870 ****
 69 C          -7.574774   -0.568390   -2.000082 C         1 UNL       -0.2868 ****
 70 H          -7.572566   -1.279463   -2.836271 H         1 UNL        0.0541 ****
 71 H          -8.617803   -0.406295   -1.705075 H         1 UNL        0.0541 ****
 72 H          -7.179720    0.383761   -2.372606 H         1 UNL        0.0541 ****
 73 C          -7.340313   -2.408418   -0.285059 C         1 UNL       -0.2899 ****
 74 H          -7.296615   -3.200128   -1.044411 H         1 UNL        0.0543 ****
 75 H          -8.392270   -2.270285   -0.010451 H         1 UNL        0.0543 ****
 76 H          -6.813137   -2.769960    0.603706 H         1 UNL        0.0543 ****
@<TRIPOS>BOND
    1     1     2 1
    2     1     3 1
    3     1    11 1
    4     1    56 1
    5     3     4 1
    6     3     5 1
    7     3     6 1
    8     6     7 1
    9     6    14 1
   10     7     8 1
   11     7    20 1
   12     7    49 1
   13     8     9 1
   14     8    10 1
   15     8    11 1
   16    11    12 1
   17    11    13 1
   18    14    15 1
   19    14    16 1
   20    16    17 1
   21    16    18 1
   22    16    53 1
   23    18    19 1
   24    18    20 1
   25    18    29 1
   26    20    21 1
   27    20    22 1
   28    22    23 1
   29    22    24 1
   30    22    25 1
   31    25    26 1
   32    25    27 1
   33    25    28 1
   34    28    29 1
   35    28    37 1
   36    28    39 1
   37    29    30 1
   38    29    31 1
   39    31    32 1
   40    31    33 1
   41    31    34 1
   42    34    35 1
   43    34    36 1
   44    34    37 1
   45    37    38 1
   46    37    43 1
   47    39    40 1
   48    39    41 1
   49    39    42 1
   50    43    44 1
   51    43    45 1
   52    43    58 1
   53    45    46 1
   54    45    47 1
   55    45    48 1
   56    49    50 1
   57    49    51 1
   58    49    52 1
   59    53    54 1
   60    54    55 1
   61    56    57 1
   62    58    59 1
   63    58    60 1
   64    58    61 1
   65    61    62 1
   66    61    63 1
   67    61    64 1
   68    64    65 1
   69    64    66 1
   70    64    67 1
   71    67    68 1
   72    67    69 1
   73    67    73 1
   74    69    70 1
   75    69    71 1
   76    69    72 1
   77    73    74 1
   78    73    75 1
   79    73    76 1
@<TRIPOS>SUBSTRUCTURE
      1  UNL              1 ****               0 ****  ****  


