@<TRIPOS>MOLECULE
UNL
   76    79     1     0     1
SMALL
USER_CHARGES
@<TRIPOS>ATOM
  1 C           5.552328   -2.076497   -0.431443 C         1 UNL        0.4631 ****
  2 H           5.084600   -2.550965   -1.302844 H         1 UNL        0.0087 ****
  3 C           5.412356   -0.553073   -0.556304 C         1 UNL       -0.1309 ****
  4 H           5.863833   -0.213809   -1.493548 H         1 UNL        0.0508 ****
  5 H           5.997070   -0.096630    0.259080 H         1 UNL        0.0508 ****
  6 C           3.971135   -0.086607   -0.470112 C         1 UNL       -0.1086 ****
  7 C           3.139894   -0.595934    0.711639 C         1 UNL        0.3596 ****
  8 C           3.379786   -2.130748    0.860882 C         1 UNL       -0.1159 ****
  9 H           2.859377   -2.641810    0.038889 H         1 UNL        0.0287 ****
 10 H           2.918042   -2.484902    1.788612 H         1 UNL        0.0287 ****
 11 C           4.854321   -2.561997    0.838597 C         1 UNL       -0.1534 ****
 12 H           5.385564   -2.161212    1.714564 H         1 UNL        0.0373 ****
 13 H           4.925485   -3.653818    0.901561 H         1 UNL        0.0373 ****
 14 C           3.479044    0.748355   -1.394744 C         1 UNL       -0.3956 ****
 15 H           4.109709    1.072301   -2.219623 H         1 UNL        0.1796 ****
 16 C           2.100411    1.340017   -1.386220 C         1 UNL        0.4623 ****
 17 H           1.533120    0.991059   -2.263073 H         1 UNL       -0.0404 ****
 18 C           1.301673    1.073480   -0.099692 C         1 UNL        0.1258 ****
 19 H           1.630554    1.818985    0.635859 H         1 UNL       -0.0202 ****
 20 C           1.616884   -0.354062    0.432191 C         1 UNL       -0.1120 ****
 21 H           1.354644   -1.042545   -0.387715 H         1 UNL       -0.0458 ****
 22 C           0.709112   -0.721985    1.629487 C         1 UNL        0.1199 ****
 23 H           0.994627   -0.131485    2.506581 H         1 UNL       -0.0214 ****
 24 H           0.873705   -1.769607    1.903437 H         1 UNL       -0.0214 ****
 25 C          -0.794419   -0.519231    1.361064 C         1 UNL       -0.2187 ****
 26 H          -1.119716   -1.220367    0.579754 H         1 UNL        0.0210 ****
 27 H          -1.353127   -0.778623    2.267995 H         1 UNL        0.0210 ****
 28 C          -1.105088    0.918486    0.905175 C         1 UNL        0.4137 ****
 29 C          -0.213684    1.203771   -0.340817 C         1 UNL        0.0850 ****
 30 H          -0.462330    0.405885   -1.060791 H         1 UNL       -0.0460 ****
 31 C          -0.788232    2.509966   -0.921956 C         1 UNL       -0.0961 ****
 32 H          -0.578880    2.611871   -1.991345 H         1 UNL        0.0185 ****
 33 H          -0.340943    3.381145   -0.432978 H         1 UNL        0.0185 ****
 34 C          -2.311738    2.412894   -0.626518 C         1 UNL       -0.0597 ****
 35 H          -2.663084    3.313718   -0.113215 H         1 UNL        0.0146 ****
 36 H          -2.903528    2.334382   -1.545282 H         1 UNL        0.0146 ****
 37 C          -2.515639    1.142151    0.256730 C         1 UNL       -0.0439 ****
 38 H          -2.625397    0.303053   -0.444426 H         1 UNL       -0.0320 ****
 39 C          -0.819581    1.914257    2.053458 C         1 UNL       -0.4528 ****
 40 H           0.245546    1.971201    2.291708 H         1 UNL        0.0908 ****
 41 H          -1.148840    2.928404    1.813917 H         1 UNL        0.0908 ****
 42 H          -1.335387    1.607426    2.967712 H         1 UNL        0.0908 ****
 43 C          -3.851510    1.168198    1.054011 C         1 UNL        0.2865 ****
 44 H          -4.603218    1.407714    0.286373 H         1 UNL       -0.0643 ****
 45 C          -3.999034    2.262135    2.130987 C         1 UNL       -0.3027 ****
 46 H          -3.456345    2.014095    3.047891 H         1 UNL        0.0608 ****
 47 H          -5.055648    2.370162    2.401071 H         1 UNL        0.0608 ****
 48 H          -3.649783    3.241225    1.790507 H         1 UNL        0.0608 ****
 49 C           3.611029    0.132593    1.998721 C         1 UNL       -0.0948 ****
 50 H           3.155448   -0.303156    2.893424 H         1 UNL        0.0041 ****
 51 H           4.694843    0.063691    2.123252 H         1 UNL        0.0041 ****
 52 H           3.359305    1.196778    1.966291 H         1 UNL        0.0041 ****
 53 O           2.185412    2.784547   -1.480574 O         1 UNL       -0.3317 ****
 54 O           2.692605    3.115437   -2.808552 O         1 UNL       -0.4042 ****
 55 H           1.915780    3.562179   -3.183385 H         1 UNL        0.3900 ****
 56 O           6.919022   -2.493218   -0.498432 O         1 UNL       -0.7320 ****
 57 H           7.398671   -2.101649    0.245072 H         1 UNL        0.4048 ****
 58 C          -4.265168   -0.192602    1.666434 C         1 UNL       -0.0941 ****
 59 H          -3.537919   -0.475017    2.438252 H         1 UNL        0.0023 ****
 60 H          -5.214551   -0.037236    2.199133 H         1 UNL        0.0023 ****
 61 C          -4.454753   -1.378143    0.701453 C         1 UNL        0.1135 ****
 62 H          -3.507698   -1.612978    0.203068 H         1 UNL       -0.0291 ****
 63 H          -4.701663   -2.263643    1.304470 H         1 UNL       -0.0291 ****
 64 C          -5.563898   -1.175056   -0.343031 C         1 UNL       -0.1179 ****
 65 H          -5.280318   -0.378637   -1.046200 H         1 UNL        0.0048 ****
 66 H          -6.467031   -0.816999    0.172672 H         1 UNL        0.0048 ****
 67 C          -5.934489   -2.433174   -1.155035 C         1 UNL        0.4176 ****
 68 H          -6.192160   -3.227099   -0.436872 H         1 UNL       -0.0870 ****
 69 C          -7.173536   -2.169027   -2.025055 C         1 UNL       -0.2868 ****
 70 H          -6.972600   -1.381287   -2.762554 H         1 UNL        0.0541 ****
 71 H          -7.473129   -3.068646   -2.574654 H         1 UNL        0.0541 ****
 72 H          -8.027249   -1.846449   -1.418065 H         1 UNL        0.0541 ****
 73 C          -4.769015   -2.941055   -2.019449 C         1 UNL       -0.2899 ****
 74 H          -4.453800   -2.172008   -2.736900 H         1 UNL        0.0543 ****
 75 H          -5.064141   -3.827146   -2.592873 H         1 UNL        0.0543 ****
 76 H          -3.896889   -3.214344   -1.417061 H         1 UNL        0.0543 ****
@<TRIPOS>BOND
    1     1     2 1
    2     1     3 1
    3     1    11 1
    4     1    56 1
    5     3     4 1
    6     3     5 1
    7     3     6 1
    8     6     7 1
    9     6    14 1
   10     7     8 1
   11     7    20 1
   12     7    49 1
   13     8     9 1
   14     8    10 1
   15     8    11 1
   16    11    12 1
   17    11    13 1
   18    14    15 1
   19    14    16 1
   20    16    17 1
   21    16    18 1
   22    16    53 1
   23    18    19 1
   24    18    20 1
   25    18    29 1
   26    20    21 1
   27    20    22 1
   28    22    23 1
   29    22    24 1
   30    22    25 1
   31    25    26 1
   32    25    27 1
   33    25    28 1
   34    28    29 1
   35    28    37 1
   36    28    39 1
   37    29    30 1
   38    29    31 1
   39    31    32 1
   40    31    33 1
   41    31    34 1
   42    34    35 1
   43    34    36 1
   44    34    37 1
   45    37    38 1
   46    37    43 1
   47    39    40 1
   48    39    41 1
   49    39    42 1
   50    43    44 1
   51    43    45 1
   52    43    58 1
   53    45    46 1
   54    45    47 1
   55    45    48 1
   56    49    50 1
   57    49    51 1
   58    49    52 1
   59    53    54 1
   60    54    55 1
   61    56    57 1
   62    58    59 1
   63    58    60 1
   64    58    61 1
   65    61    62 1
   66    61    63 1
   67    61    64 1
   68    64    65 1
   69    64    66 1
   70    64    67 1
   71    67    68 1
   72    67    69 1
   73    67    73 1
   74    69    70 1
   75    69    71 1
   76    69    72 1
   77    73    74 1
   78    73    75 1
   79    73    76 1
@<TRIPOS>SUBSTRUCTURE
      1  UNL              1 ****               0 ****  ****  


