@<TRIPOS>MOLECULE
UNL
   76    79     1     0     1
SMALL
USER_CHARGES
@<TRIPOS>ATOM
  1 C          -6.081857   -0.870951    1.674534 C         1 UNL        0.4631 ****
  2 H          -5.602560   -0.771417    2.656167 H         1 UNL        0.0087 ****
  3 C          -5.748915    0.365242    0.827771 C         1 UNL       -0.1309 ****
  4 H          -6.075222    1.271050    1.347784 H         1 UNL        0.0508 ****
  5 H          -6.341106    0.303175   -0.099918 H         1 UNL        0.0508 ****
  6 C          -4.274441    0.461322    0.483178 C         1 UNL       -0.1086 ****
  7 C          -3.613299   -0.782729   -0.118664 C         1 UNL        0.3596 ****
  8 C          -4.049098   -2.028104    0.714642 C         1 UNL       -0.1159 ****
  9 H          -3.526926   -1.995259    1.681041 H         1 UNL        0.0287 ****
 10 H          -3.713500   -2.940916    0.211206 H         1 UNL        0.0287 ****
 11 C          -5.557842   -2.131060    0.986373 C         1 UNL       -0.1534 ****
 12 H          -6.108908   -2.280891    0.046114 H         1 UNL        0.0373 ****
 13 H          -5.765892   -3.005009    1.614088 H         1 UNL        0.0373 ****
 14 C          -3.608998    1.604841    0.692323 C         1 UNL       -0.3956 ****
 15 H          -4.124069    2.456461    1.131152 H         1 UNL        0.1796 ****
 16 C          -2.174847    1.854931    0.329557 C         1 UNL        0.4623 ****
 17 H          -1.581942    2.043838    1.238001 H         1 UNL       -0.0404 ****
 18 C          -1.524265    0.737517   -0.502456 C         1 UNL        0.1258 ****
 19 H          -1.816992    0.907944   -1.546841 H         1 UNL       -0.0202 ****
 20 C          -2.054298   -0.647342   -0.034618 C         1 UNL       -0.1120 ****
 21 H          -1.809958   -0.713708    1.038169 H         1 UNL       -0.0458 ****
 22 C          -1.300572   -1.800382   -0.736403 C         1 UNL        0.1199 ****
 23 H          -1.592240   -1.844153   -1.791286 H         1 UNL       -0.0214 ****
 24 H          -1.606829   -2.756696   -0.298869 H         1 UNL       -0.0214 ****
 25 C           0.234577   -1.697286   -0.650980 C         1 UNL       -0.2187 ****
 26 H           0.549830   -1.807829    0.396690 H         1 UNL        0.0210 ****
 27 H           0.670250   -2.539992   -1.197108 H         1 UNL        0.0210 ****
 28 C           0.751257   -0.345809   -1.182297 C         1 UNL        0.4137 ****
 29 C           0.010559    0.762389   -0.379059 C         1 UNL        0.0850 ****
 30 H           0.223805    0.536959    0.679961 H         1 UNL       -0.0460 ****
 31 C           0.782179    2.050393   -0.711406 C         1 UNL       -0.0961 ****
 32 H           0.672857    2.810333    0.068629 H         1 UNL        0.0185 ****
 33 H           0.408513    2.499230   -1.637157 H         1 UNL        0.0185 ****
 34 C           2.252413    1.573546   -0.865972 C         1 UNL       -0.0597 ****
 35 H           2.674623    1.928472   -1.813461 H         1 UNL        0.0146 ****
 36 H           2.893206    1.976550   -0.075082 H         1 UNL        0.0146 ****
 37 C           2.237043    0.010751   -0.829751 C         1 UNL       -0.0439 ****
 38 H           2.377666   -0.306594    0.214168 H         1 UNL       -0.0320 ****
 39 C           0.514539   -0.230849   -2.705381 C         1 UNL       -0.4528 ****
 40 H          -0.545391   -0.278579   -2.967434 H         1 UNL        0.0908 ****
 41 H           0.903797    0.707464   -3.111628 H         1 UNL        0.0908 ****
 42 H           1.014327   -1.048523   -3.235383 H         1 UNL        0.0908 ****
 43 C           3.387949   -0.611773   -1.658908 C         1 UNL        0.2865 ****
 44 H           3.253811   -0.285406   -2.700570 H         1 UNL       -0.0643 ****
 45 C           3.392411   -2.152140   -1.660691 C         1 UNL       -0.3027 ****
 46 H           3.350133   -2.563584   -0.646043 H         1 UNL        0.0608 ****
 47 H           4.305756   -2.531222   -2.134270 H         1 UNL        0.0608 ****
 48 H           2.545789   -2.563050   -2.216432 H         1 UNL        0.0608 ****
 49 C          -4.099087   -0.940511   -1.584417 C         1 UNL       -0.0948 ****
 50 H          -3.778741   -1.896389   -2.010575 H         1 UNL        0.0041 ****
 51 H          -5.189759   -0.908449   -1.649397 H         1 UNL        0.0041 ****
 52 H          -3.716584   -0.134479   -2.217645 H         1 UNL        0.0041 ****
 53 O          -2.077636    3.041971   -0.497671 O         1 UNL       -0.3317 ****
 54 O          -2.426884    4.192152    0.330211 O         1 UNL       -0.4042 ****
 55 H          -1.573052    4.654806    0.351535 H         1 UNL        0.3900 ****
 56 O          -7.478207   -0.951121    1.974161 O         1 UNL       -0.7320 ****
 57 H          -7.968493   -1.034901    1.144231 H         1 UNL        0.4048 ****
 58 C           4.777886   -0.068296   -1.231156 C         1 UNL       -0.0941 ****
 59 H           5.522698   -0.483262   -1.925253 H         1 UNL        0.0023 ****
 60 H           4.806216    1.018191   -1.380915 H         1 UNL        0.0023 ****
 61 C           5.227723   -0.379489    0.205823 C         1 UNL        0.1135 ****
 62 H           4.526687    0.067508    0.924211 H         1 UNL       -0.0291 ****
 63 H           5.194734   -1.462025    0.375799 H         1 UNL       -0.0291 ****
 64 C           6.640245    0.148172    0.501017 C         1 UNL       -0.1179 ****
 65 H           6.672610    1.218572    0.251454 H         1 UNL        0.0048 ****
 66 H           7.359741   -0.341426   -0.173205 H         1 UNL        0.0048 ****
 67 C           7.123582   -0.026513    1.955179 C         1 UNL        0.4176 ****
 68 H           6.373387    0.440028    2.612573 H         1 UNL       -0.0870 ****
 69 C           7.251886   -1.503691    2.361470 C         1 UNL       -0.2868 ****
 70 H           7.970967   -2.023104    1.714551 H         1 UNL        0.0541 ****
 71 H           7.608340   -1.596112    3.393731 H         1 UNL        0.0541 ****
 72 H           6.297417   -2.035205    2.294150 H         1 UNL        0.0541 ****
 73 C           8.456224    0.707834    2.172185 C         1 UNL       -0.2899 ****
 74 H           9.244118    0.283171    1.536878 H         1 UNL        0.0543 ****
 75 H           8.790507    0.627353    3.212833 H         1 UNL        0.0543 ****
 76 H           8.370493    1.772977    1.928382 H         1 UNL        0.0543 ****
@<TRIPOS>BOND
    1     1     2 1
    2     1     3 1
    3     1    11 1
    4     1    56 1
    5     3     4 1
    6     3     5 1
    7     3     6 1
    8     6     7 1
    9     6    14 1
   10     7     8 1
   11     7    20 1
   12     7    49 1
   13     8     9 1
   14     8    10 1
   15     8    11 1
   16    11    12 1
   17    11    13 1
   18    14    15 1
   19    14    16 1
   20    16    17 1
   21    16    18 1
   22    16    53 1
   23    18    19 1
   24    18    20 1
   25    18    29 1
   26    20    21 1
   27    20    22 1
   28    22    23 1
   29    22    24 1
   30    22    25 1
   31    25    26 1
   32    25    27 1
   33    25    28 1
   34    28    29 1
   35    28    37 1
   36    28    39 1
   37    29    30 1
   38    29    31 1
   39    31    32 1
   40    31    33 1
   41    31    34 1
   42    34    35 1
   43    34    36 1
   44    34    37 1
   45    37    38 1
   46    37    43 1
   47    39    40 1
   48    39    41 1
   49    39    42 1
   50    43    44 1
   51    43    45 1
   52    43    58 1
   53    45    46 1
   54    45    47 1
   55    45    48 1
   56    49    50 1
   57    49    51 1
   58    49    52 1
   59    53    54 1
   60    54    55 1
   61    56    57 1
   62    58    59 1
   63    58    60 1
   64    58    61 1
   65    61    62 1
   66    61    63 1
   67    61    64 1
   68    64    65 1
   69    64    66 1
   70    64    67 1
   71    67    68 1
   72    67    69 1
   73    67    73 1
   74    69    70 1
   75    69    71 1
   76    69    72 1
   77    73    74 1
   78    73    75 1
   79    73    76 1
@<TRIPOS>SUBSTRUCTURE
      1  UNL              1 ****               0 ****  ****  


