@<TRIPOS>MOLECULE
UNL
   76    79     1     0     1
SMALL
USER_CHARGES
@<TRIPOS>ATOM
  1 C           6.421705   -0.809036   -1.282840 C         1 UNL        0.4631 ****
  2 H           6.073342   -0.644846   -2.309942 H         1 UNL        0.0087 ****
  3 C           5.984860    0.376296   -0.410965 C         1 UNL       -0.1309 ****
  4 H           6.377447    1.308883   -0.827557 H         1 UNL        0.0508 ****
  5 H           6.452437    0.251613    0.579456 H         1 UNL        0.0508 ****
  6 C           4.478501    0.466213   -0.253248 C         1 UNL       -0.1086 ****
  7 C           3.742475   -0.805569    0.179861 C         1 UNL        0.3596 ****
  8 C           4.279690   -2.002074   -0.665767 C         1 UNL       -0.1159 ****
  9 H           3.886787   -1.904903   -1.687453 H         1 UNL        0.0287 ****
 10 H           3.879727   -2.940535   -0.267327 H         1 UNL        0.0287 ****
 11 C           5.810669   -2.103537   -0.747254 C         1 UNL       -0.1534 ****
 12 H           6.235719   -2.316446    0.244800 H         1 UNL        0.0373 ****
 13 H           6.095867   -2.939447   -1.396113 H         1 UNL        0.0373 ****
 14 C           3.848363    1.627530   -0.473581 C         1 UNL       -0.3956 ****
 15 H           4.417855    2.499213   -0.788191 H         1 UNL        0.1796 ****
 16 C           2.380227    1.870105   -0.282732 C         1 UNL        0.4623 ****
 17 H           1.910612    2.124982   -1.245502 H         1 UNL       -0.0404 ****
 18 C           1.623731    0.708847    0.383058 C         1 UNL        0.1258 ****
 19 H           1.775533    0.810636    1.465731 H         1 UNL       -0.0202 ****
 20 C           2.207902   -0.649468   -0.096495 C         1 UNL       -0.1120 ****
 21 H           2.104501   -0.648788   -1.193854 H         1 UNL       -0.0458 ****
 22 C           1.366028   -1.833450    0.431033 C         1 UNL        0.1199 ****
 23 H           1.514848   -1.939980    1.511077 H         1 UNL       -0.0214 ****
 24 H           1.725802   -2.766211   -0.016513 H         1 UNL       -0.0214 ****
 25 C          -0.143761   -1.711093    0.148520 C         1 UNL       -0.2187 ****
 26 H          -0.316498   -1.755201   -0.936580 H         1 UNL        0.0210 ****
 27 H          -0.647816   -2.582177    0.578218 H         1 UNL        0.0210 ****
 28 C          -0.726902   -0.388971    0.686943 C         1 UNL        0.4137 ****
 29 C           0.118787    0.757247    0.059218 C         1 UNL        0.0850 ****
 30 H           0.047219    0.600205   -1.030851 H         1 UNL       -0.0460 ****
 31 C          -0.685777    2.029703    0.366367 C         1 UNL       -0.0961 ****
 32 H          -0.459892    2.841908   -0.331563 H         1 UNL        0.0185 ****
 33 H          -0.451116    2.405440    1.367339 H         1 UNL        0.0185 ****
 34 C          -2.163240    1.564215    0.265448 C         1 UNL       -0.0597 ****
 35 H          -2.732532    1.884990    1.146096 H         1 UNL        0.0146 ****
 36 H          -2.660851    2.009593   -0.601302 H         1 UNL        0.0146 ****
 37 C          -2.153162    0.001324    0.161758 C         1 UNL       -0.0439 ****
 38 H          -2.166669   -0.268116   -0.906504 H         1 UNL       -0.0320 ****
 39 C          -0.697048   -0.363889    2.232345 C         1 UNL       -0.4528 ****
 40 H           0.318065   -0.436224    2.630767 H         1 UNL        0.0908 ****
 41 H          -1.136101    0.553635    2.635208 H         1 UNL        0.0908 ****
 42 H          -1.265167   -1.204683    2.643432 H         1 UNL        0.0908 ****
 43 C          -3.411096   -0.644742    0.799172 C         1 UNL        0.2865 ****
 44 H          -3.451114   -0.332015    1.853924 H         1 UNL       -0.0643 ****
 45 C          -3.393496   -2.183017    0.760945 C         1 UNL       -0.3027 ****
 46 H          -3.277125   -2.548604   -0.267231 H         1 UNL        0.0608 ****
 47 H          -4.324569   -2.598801    1.157047 H         1 UNL        0.0608 ****
 48 H          -2.580228   -2.602094    1.357289 H         1 UNL        0.0608 ****
 49 C           4.033861   -1.057461    1.683455 C         1 UNL       -0.0948 ****
 50 H           3.656542   -2.033207    2.005148 H         1 UNL        0.0041 ****
 51 H           5.107098   -1.043018    1.890376 H         1 UNL        0.0041 ****
 52 H           3.576338   -0.286205    2.310164 H         1 UNL        0.0041 ****
 53 O           2.180357    3.001684    0.601989 O         1 UNL       -0.3317 ****
 54 O           2.637778    4.199319   -0.095659 O         1 UNL       -0.4042 ****
 55 H           1.795506    4.672565   -0.196321 H         1 UNL        0.3900 ****
 56 O           7.844879   -0.884769   -1.404601 O         1 UNL       -0.7320 ****
 57 H           8.223727   -1.023412   -0.525147 H         1 UNL        0.4048 ****
 58 C          -4.692597   -0.104871    0.115703 C         1 UNL       -0.0941 ****
 59 H          -4.642497    0.989188    0.065898 H         1 UNL        0.0023 ****
 60 H          -4.703887   -0.456447   -0.926258 H         1 UNL        0.0023 ****
 61 C          -6.012234   -0.479133    0.812054 C         1 UNL        0.1135 ****
 62 H          -6.186746   -1.559546    0.753435 H         1 UNL       -0.0291 ****
 63 H          -5.920573   -0.248000    1.882898 H         1 UNL       -0.0291 ****
 64 C          -7.243956    0.269018    0.269187 C         1 UNL       -0.1179 ****
 65 H          -7.085597    1.348586    0.406110 H         1 UNL        0.0048 ****
 66 H          -8.114374    0.009407    0.889918 H         1 UNL        0.0048 ****
 67 C          -7.613757    0.015261   -1.207915 C         1 UNL        0.4176 ****
 68 H          -6.751187    0.292016   -1.831040 H         1 UNL       -0.0870 ****
 69 C          -7.941970   -1.460326   -1.485719 C         1 UNL       -0.2868 ****
 70 H          -8.784875   -1.794928   -0.866975 H         1 UNL        0.0541 ****
 71 H          -8.221960   -1.607852   -2.534985 H         1 UNL        0.0541 ****
 72 H          -7.093059   -2.119279   -1.276395 H         1 UNL        0.0541 ****
 73 C          -8.788464    0.915813   -1.622405 C         1 UNL       -0.2899 ****
 74 H          -9.686104    0.682612   -1.035277 H         1 UNL        0.0543 ****
 75 H          -9.039837    0.780864   -2.680619 H         1 UNL        0.0543 ****
 76 H          -8.554730    1.975152   -1.465530 H         1 UNL        0.0543 ****
@<TRIPOS>BOND
    1     1     2 1
    2     1     3 1
    3     1    11 1
    4     1    56 1
    5     3     4 1
    6     3     5 1
    7     3     6 1
    8     6     7 1
    9     6    14 1
   10     7     8 1
   11     7    20 1
   12     7    49 1
   13     8     9 1
   14     8    10 1
   15     8    11 1
   16    11    12 1
   17    11    13 1
   18    14    15 1
   19    14    16 1
   20    16    17 1
   21    16    18 1
   22    16    53 1
   23    18    19 1
   24    18    20 1
   25    18    29 1
   26    20    21 1
   27    20    22 1
   28    22    23 1
   29    22    24 1
   30    22    25 1
   31    25    26 1
   32    25    27 1
   33    25    28 1
   34    28    29 1
   35    28    37 1
   36    28    39 1
   37    29    30 1
   38    29    31 1
   39    31    32 1
   40    31    33 1
   41    31    34 1
   42    34    35 1
   43    34    36 1
   44    34    37 1
   45    37    38 1
   46    37    43 1
   47    39    40 1
   48    39    41 1
   49    39    42 1
   50    43    44 1
   51    43    45 1
   52    43    58 1
   53    45    46 1
   54    45    47 1
   55    45    48 1
   56    49    50 1
   57    49    51 1
   58    49    52 1
   59    53    54 1
   60    54    55 1
   61    56    57 1
   62    58    59 1
   63    58    60 1
   64    58    61 1
   65    61    62 1
   66    61    63 1
   67    61    64 1
   68    64    65 1
   69    64    66 1
   70    64    67 1
   71    67    68 1
   72    67    69 1
   73    67    73 1
   74    69    70 1
   75    69    71 1
   76    69    72 1
   77    73    74 1
   78    73    75 1
   79    73    76 1
@<TRIPOS>SUBSTRUCTURE
      1  UNL              1 ****               0 ****  ****  


