@<TRIPOS>MOLECULE
UNL
   76    79     1     0     1
SMALL
USER_CHARGES
@<TRIPOS>ATOM
  1 C           5.548705   -2.138558   -0.568935 C         1 UNL        0.4631 ****
  2 H           5.081386   -2.534974   -1.478719 H         1 UNL        0.0087 ****
  3 C           5.442921   -0.607328   -0.578870 C         1 UNL       -0.1309 ****
  4 H           5.913077   -0.208005   -1.482671 H         1 UNL        0.0508 ****
  5 H           6.027180   -0.227214    0.275106 H         1 UNL        0.0508 ****
  6 C           4.011125   -0.116638   -0.472633 C         1 UNL       -0.1086 ****
  7 C           3.154247   -0.695902    0.657524 C         1 UNL        0.3596 ****
  8 C           3.360015   -2.242417    0.692767 C         1 UNL       -0.1159 ****
  9 H           2.838757   -2.678522   -0.170839 H         1 UNL        0.0287 ****
 10 H           2.879783   -2.655234    1.586210 H         1 UNL        0.0287 ****
 11 C           4.825243   -2.703326    0.653177 C         1 UNL       -0.1534 ****
 12 H           5.354400   -2.382099    1.562578 H         1 UNL        0.0373 ****
 13 H           4.872251   -3.798091    0.633610 H         1 UNL        0.0373 ****
 14 C           3.548740    0.797801   -1.335345 C         1 UNL       -0.3956 ****
 15 H           4.196398    1.169809   -2.126077 H         1 UNL        0.1796 ****
 16 C           2.183380    1.418399   -1.295573 C         1 UNL        0.4623 ****
 17 H           1.619354    1.151292   -2.202758 H         1 UNL       -0.0404 ****
 18 C           1.363191    1.071467   -0.042117 C         1 UNL        0.1258 ****
 19 H           1.699913    1.749511    0.752700 H         1 UNL       -0.0202 ****
 20 C           1.640459   -0.400136    0.379631 C         1 UNL       -0.1120 ****
 21 H           1.375282   -1.016196   -0.495133 H         1 UNL       -0.0458 ****
 22 C           0.709132   -0.841539    1.533176 C         1 UNL        0.1199 ****
 23 H           0.996955   -0.330942    2.458329 H         1 UNL       -0.0214 ****
 24 H           0.846388   -1.911482    1.723004 H         1 UNL       -0.0214 ****
 25 C          -0.785951   -0.582432    1.265879 C         1 UNL       -0.2187 ****
 26 H          -1.117452   -1.211273    0.427751 H         1 UNL        0.0210 ****
 27 H          -1.361649   -0.900013    2.143190 H         1 UNL        0.0210 ****
 28 C          -1.058041    0.893957    0.922910 C         1 UNL        0.4137 ****
 29 C          -0.145767    1.255709   -0.287604 C         1 UNL        0.0850 ****
 30 H          -0.403867    0.523172   -1.070947 H         1 UNL       -0.0460 ****
 31 C          -0.683394    2.617099   -0.768791 C         1 UNL       -0.0961 ****
 32 H          -0.459590    2.798343   -1.824674 H         1 UNL        0.0185 ****
 33 H          -0.221612    3.435853   -0.207954 H         1 UNL        0.0185 ****
 34 C          -2.211981    2.533751   -0.496467 C         1 UNL       -0.0597 ****
 35 H          -2.547898    3.399330    0.083442 H         1 UNL        0.0146 ****
 36 H          -2.794984    2.542666   -1.424123 H         1 UNL        0.0146 ****
 37 C          -2.455540    1.202342    0.281023 C         1 UNL       -0.0439 ****
 38 H          -2.577159    0.424291   -0.485625 H         1 UNL       -0.0320 ****
 39 C          -0.763633    1.788198    2.149830 C         1 UNL       -0.4528 ****
 40 H           0.299362    1.800472    2.403334 H         1 UNL        0.0908 ****
 41 H          -1.066432    2.825828    1.988725 H         1 UNL        0.0908 ****
 42 H          -1.297867    1.421787    3.030946 H         1 UNL        0.0908 ****
 43 C          -3.799276    1.197459    1.065511 C         1 UNL        0.2865 ****
 44 H          -4.536451    1.514260    0.312107 H         1 UNL       -0.0643 ****
 45 C          -3.934404    2.207980    2.222752 C         1 UNL       -0.3027 ****
 46 H          -3.406527    1.878109    3.122347 H         1 UNL        0.0608 ****
 47 H          -4.991202    2.318123    2.491260 H         1 UNL        0.0608 ****
 48 H          -3.560934    3.202450    1.961908 H         1 UNL        0.0608 ****
 49 C           3.623498   -0.076852    2.001319 C         1 UNL       -0.0948 ****
 50 H           3.147815   -0.568965    2.855419 H         1 UNL        0.0041 ****
 51 H           4.703986   -0.177946    2.132207 H         1 UNL        0.0041 ****
 52 H           3.394045    0.991883    2.046719 H         1 UNL        0.0041 ****
 53 O           2.301297    2.863552   -1.276687 O         1 UNL       -0.3317 ****
 54 O           2.831941    3.284369   -2.569626 O         1 UNL       -0.4042 ****
 55 H           2.070440    3.778012   -2.915972 H         1 UNL        0.3900 ****
 56 O           6.906847   -2.579355   -0.653405 O         1 UNL       -0.7320 ****
 57 H           7.385944   -2.256061    0.122569 H         1 UNL        0.4048 ****
 58 C          -4.249810   -0.196248    1.568293 C         1 UNL       -0.0941 ****
 59 H          -3.540547   -0.548349    2.328196 H         1 UNL        0.0023 ****
 60 H          -5.203942   -0.060912    2.097978 H         1 UNL        0.0023 ****
 61 C          -4.447039   -1.308773    0.520586 C         1 UNL        0.1135 ****
 62 H          -3.503205   -1.516545    0.000208 H         1 UNL       -0.0291 ****
 63 H          -4.694928   -2.228695    1.064424 H         1 UNL       -0.0291 ****
 64 C          -5.541284   -1.020467   -0.518817 C         1 UNL       -0.1179 ****
 65 H          -5.288261   -0.102836   -1.065928 H         1 UNL        0.0048 ****
 66 H          -6.489987   -0.812314    0.000177 H         1 UNL        0.0048 ****
 67 C          -5.775797   -2.142367   -1.552375 C         1 UNL        0.4176 ****
 68 H          -4.803648   -2.378132   -2.012772 H         1 UNL       -0.0870 ****
 69 C          -6.320344   -3.431336   -0.915317 C         1 UNL       -0.2868 ****
 70 H          -7.283145   -3.243259   -0.422445 H         1 UNL        0.0541 ****
 71 H          -6.482827   -4.204149   -1.675207 H         1 UNL        0.0541 ****
 72 H          -5.637162   -3.845345   -0.167147 H         1 UNL        0.0541 ****
 73 C          -6.716195   -1.658782   -2.667944 C         1 UNL       -0.2899 ****
 74 H          -7.703390   -1.402308   -2.262459 H         1 UNL        0.0543 ****
 75 H          -6.862111   -2.433109   -3.429684 H         1 UNL        0.0543 ****
 76 H          -6.319824   -0.767116   -3.167108 H         1 UNL        0.0543 ****
@<TRIPOS>BOND
    1     1     2 1
    2     1     3 1
    3     1    11 1
    4     1    56 1
    5     3     4 1
    6     3     5 1
    7     3     6 1
    8     6     7 1
    9     6    14 1
   10     7     8 1
   11     7    20 1
   12     7    49 1
   13     8     9 1
   14     8    10 1
   15     8    11 1
   16    11    12 1
   17    11    13 1
   18    14    15 1
   19    14    16 1
   20    16    17 1
   21    16    18 1
   22    16    53 1
   23    18    19 1
   24    18    20 1
   25    18    29 1
   26    20    21 1
   27    20    22 1
   28    22    23 1
   29    22    24 1
   30    22    25 1
   31    25    26 1
   32    25    27 1
   33    25    28 1
   34    28    29 1
   35    28    37 1
   36    28    39 1
   37    29    30 1
   38    29    31 1
   39    31    32 1
   40    31    33 1
   41    31    34 1
   42    34    35 1
   43    34    36 1
   44    34    37 1
   45    37    38 1
   46    37    43 1
   47    39    40 1
   48    39    41 1
   49    39    42 1
   50    43    44 1
   51    43    45 1
   52    43    58 1
   53    45    46 1
   54    45    47 1
   55    45    48 1
   56    49    50 1
   57    49    51 1
   58    49    52 1
   59    53    54 1
   60    54    55 1
   61    56    57 1
   62    58    59 1
   63    58    60 1
   64    58    61 1
   65    61    62 1
   66    61    63 1
   67    61    64 1
   68    64    65 1
   69    64    66 1
   70    64    67 1
   71    67    68 1
   72    67    69 1
   73    67    73 1
   74    69    70 1
   75    69    71 1
   76    69    72 1
   77    73    74 1
   78    73    75 1
   79    73    76 1
@<TRIPOS>SUBSTRUCTURE
      1  UNL              1 ****               0 ****  ****  


