@<TRIPOS>MOLECULE
UNL
   76    79     1     0     1
SMALL
USER_CHARGES
@<TRIPOS>ATOM
  1 C           6.224171   -0.115281   -1.521592 C         1 UNL        0.4631 ****
  2 H           5.799116    0.206235   -2.480338 H         1 UNL        0.0087 ****
  3 C           5.724015    0.821809   -0.413530 C         1 UNL       -0.1309 ****
  4 H           5.994382    1.855297   -0.650542 H         1 UNL        0.0508 ****
  5 H           6.261203    0.559499    0.512588 H         1 UNL        0.0508 ****
  6 C           4.228679    0.711436   -0.181381 C         1 UNL       -0.1086 ****
  7 C           3.653092   -0.694011    0.018884 C         1 UNL        0.3596 ****
  8 C           4.254741   -1.635491   -1.070599 C         1 UNL       -0.1159 ****
  9 H           3.791894   -1.384817   -2.035272 H         1 UNL        0.0287 ****
 10 H           3.976412   -2.672082   -0.852836 H         1 UNL        0.0287 ****
 11 C           5.780319   -1.548904   -1.232139 C         1 UNL       -0.1534 ****
 12 H           6.284541   -1.902628   -0.320635 H         1 UNL        0.0373 ****
 13 H           6.107884   -2.205502   -2.046187 H         1 UNL        0.0373 ****
 14 C           3.471874    1.815928   -0.142109 C         1 UNL       -0.3956 ****
 15 H           3.929796    2.789840   -0.299948 H         1 UNL        0.1796 ****
 16 C           2.000916    1.851837    0.150863 C         1 UNL        0.4623 ****
 17 H           1.449595    2.229025   -0.724508 H         1 UNL       -0.0404 ****
 18 C           1.409934    0.508003    0.607850 C         1 UNL        0.1258 ****
 19 H           1.621133    0.416902    1.681455 H         1 UNL       -0.0202 ****
 20 C           2.096233   -0.659133   -0.156667 C         1 UNL       -0.1120 ****
 21 H           1.924492   -0.457149   -1.226550 H         1 UNL       -0.0458 ****
 22 C           1.414139   -2.010319    0.158001 C         1 UNL        0.1199 ****
 23 H           1.643625   -2.308804    1.186605 H         1 UNL       -0.0214 ****
 24 H           1.836473   -2.790968   -0.483863 H         1 UNL       -0.0214 ****
 25 C          -0.115590   -2.004948   -0.026795 C         1 UNL       -0.2187 ****
 26 H          -0.354105   -1.857773   -1.090121 H         1 UNL        0.0210 ****
 27 H          -0.501636   -2.992681    0.244447 H         1 UNL        0.0210 ****
 28 C          -0.790198   -0.885495    0.790337 C         1 UNL        0.4137 ****
 29 C          -0.109953    0.448722    0.367130 C         1 UNL        0.0850 ****
 30 H          -0.235897    0.497272   -0.728122 H         1 UNL       -0.0460 ****
 31 C          -1.019030    1.540332    0.956141 C         1 UNL       -0.0961 ****
 32 H          -0.935629    2.485767    0.411056 H         1 UNL        0.0185 ****
 33 H          -0.746359    1.755086    1.994212 H         1 UNL        0.0185 ****
 34 C          -2.443936    0.929573    0.858932 C         1 UNL       -0.0597 ****
 35 H          -2.953742    0.985236    1.827962 H         1 UNL        0.0146 ****
 36 H          -3.071257    1.480196    0.150859 H         1 UNL        0.0146 ****
 37 C          -2.278339   -0.560854    0.417139 C         1 UNL       -0.0439 ****
 38 H          -2.322827   -0.597079   -0.681510 H         1 UNL       -0.0320 ****
 39 C          -0.660512   -1.160892    2.305669 C         1 UNL       -0.4528 ****
 40 H           0.380863   -1.197021    2.635239 H         1 UNL        0.0908 ****
 41 H          -1.161132   -0.395606    2.906221 H         1 UNL        0.0908 ****
 42 H          -1.112754   -2.124733    2.561884 H         1 UNL        0.0908 ****
 43 C          -3.414633   -1.466633    0.953685 C         1 UNL        0.2865 ****
 44 H          -3.379420   -1.418751    2.051892 H         1 UNL       -0.0643 ****
 45 C          -3.270143   -2.948484    0.558343 C         1 UNL       -0.3027 ****
 46 H          -3.120128   -3.074283   -0.519645 H         1 UNL        0.0608 ****
 47 H          -4.171839   -3.507515    0.835104 H         1 UNL        0.0608 ****
 48 H          -2.426645   -3.425489    1.063743 H         1 UNL        0.0608 ****
 49 C           4.062119   -1.199462    1.428334 C         1 UNL       -0.0948 ****
 50 H           3.809365   -2.255858    1.562745 H         1 UNL        0.0041 ****
 51 H           5.138783   -1.102979    1.590562 H         1 UNL        0.0041 ****
 52 H           3.566694   -0.622866    2.215147 H         1 UNL        0.0041 ****
 53 O           1.740439    2.766403    1.245615 O         1 UNL       -0.3317 ****
 54 O           2.029430    4.117771    0.776083 O         1 UNL       -0.4042 ****
 55 H           1.138228    4.503366    0.801071 H         1 UNL        0.3900 ****
 56 O           7.637651   -0.007749   -1.712567 O         1 UNL       -0.7320 ****
 57 H           8.081487   -0.272759   -0.894665 H         1 UNL        0.4048 ****
 58 C          -4.821183   -0.935792    0.562181 C         1 UNL       -0.0941 ****
 59 H          -5.564734   -1.582909    1.049944 H         1 UNL        0.0023 ****
 60 H          -4.961877    0.059332    0.998821 H         1 UNL        0.0023 ****
 61 C          -5.137442   -0.884054   -0.942352 C         1 UNL        0.1135 ****
 62 H          -4.481483   -0.159742   -1.441135 H         1 UNL       -0.0291 ****
 63 H          -4.908891   -1.856213   -1.396705 H         1 UNL       -0.0291 ****
 64 C          -6.608898   -0.557082   -1.261794 C         1 UNL       -0.1179 ****
 65 H          -7.243082   -1.327185   -0.799162 H         1 UNL        0.0048 ****
 66 H          -6.762144   -0.651176   -2.347202 H         1 UNL        0.0048 ****
 67 C          -7.128602    0.828735   -0.823237 C         1 UNL        0.4176 ****
 68 H          -6.979877    0.926545    0.261627 H         1 UNL       -0.0870 ****
 69 C          -6.376510    1.980549   -1.508759 C         1 UNL       -0.2868 ****
 70 H          -6.479823    1.917736   -2.599946 H         1 UNL        0.0541 ****
 71 H          -6.775267    2.951400   -1.193209 H         1 UNL        0.0541 ****
 72 H          -5.307036    1.972871   -1.274815 H         1 UNL        0.0541 ****
 73 C          -8.638245    0.937458   -1.091812 C         1 UNL       -0.2899 ****
 74 H          -8.852051    0.847931   -2.164745 H         1 UNL        0.0543 ****
 75 H          -9.034614    1.901767   -0.753840 H         1 UNL        0.0543 ****
 76 H          -9.193978    0.146585   -0.575068 H         1 UNL        0.0543 ****
@<TRIPOS>BOND
    1     1     2 1
    2     1     3 1
    3     1    11 1
    4     1    56 1
    5     3     4 1
    6     3     5 1
    7     3     6 1
    8     6     7 1
    9     6    14 1
   10     7     8 1
   11     7    20 1
   12     7    49 1
   13     8     9 1
   14     8    10 1
   15     8    11 1
   16    11    12 1
   17    11    13 1
   18    14    15 1
   19    14    16 1
   20    16    17 1
   21    16    18 1
   22    16    53 1
   23    18    19 1
   24    18    20 1
   25    18    29 1
   26    20    21 1
   27    20    22 1
   28    22    23 1
   29    22    24 1
   30    22    25 1
   31    25    26 1
   32    25    27 1
   33    25    28 1
   34    28    29 1
   35    28    37 1
   36    28    39 1
   37    29    30 1
   38    29    31 1
   39    31    32 1
   40    31    33 1
   41    31    34 1
   42    34    35 1
   43    34    36 1
   44    34    37 1
   45    37    38 1
   46    37    43 1
   47    39    40 1
   48    39    41 1
   49    39    42 1
   50    43    44 1
   51    43    45 1
   52    43    58 1
   53    45    46 1
   54    45    47 1
   55    45    48 1
   56    49    50 1
   57    49    51 1
   58    49    52 1
   59    53    54 1
   60    54    55 1
   61    56    57 1
   62    58    59 1
   63    58    60 1
   64    58    61 1
   65    61    62 1
   66    61    63 1
   67    61    64 1
   68    64    65 1
   69    64    66 1
   70    64    67 1
   71    67    68 1
   72    67    69 1
   73    67    73 1
   74    69    70 1
   75    69    71 1
   76    69    72 1
   77    73    74 1
   78    73    75 1
   79    73    76 1
@<TRIPOS>SUBSTRUCTURE
      1  UNL              1 ****               0 ****  ****  


