@<TRIPOS>MOLECULE
UNL
   76    79     1     0     1
SMALL
USER_CHARGES
@<TRIPOS>ATOM
  1 C          -6.621470    0.854889   -1.000735 C         1 UNL        0.4631 ****
  2 H          -6.351920    0.788877   -2.061931 H         1 UNL        0.0087 ****
  3 C          -6.118128   -0.402495   -0.277610 C         1 UNL       -0.1309 ****
  4 H          -6.542403   -1.295380   -0.747583 H         1 UNL        0.0508 ****
  5 H          -6.508436   -0.371314    0.752678 H         1 UNL        0.0508 ****
  6 C          -4.604673   -0.495776   -0.240778 C         1 UNL       -0.1086 ****
  7 C          -3.833745    0.736805    0.244443 C         1 UNL        0.3596 ****
  8 C          -4.439650    2.001023   -0.441413 C         1 UNL       -0.1159 ****
  9 H          -4.127520    2.004018   -1.495043 H         1 UNL        0.0287 ****
 10 H          -4.010355    2.900808    0.011313 H         1 UNL        0.0287 ****
 11 C          -5.972258    2.097948   -0.394297 C         1 UNL       -0.1534 ****
 12 H          -6.319112    2.213020    0.643446 H         1 UNL        0.0373 ****
 13 H          -6.307322    2.988745   -0.937672 H         1 UNL        0.0373 ****
 14 C          -3.989802   -1.626660   -0.612472 C         1 UNL       -0.3956 ****
 15 H          -4.582856   -2.466216   -0.976794 H         1 UNL        0.1796 ****
 16 C          -2.510407   -1.872020   -0.563709 C         1 UNL        0.4623 ****
 17 H          -2.129056   -2.011247   -1.588441 H         1 UNL       -0.0404 ****
 18 C          -1.705731   -0.771498    0.144451 C         1 UNL        0.1258 ****
 19 H          -1.780316   -0.969056    1.219338 H         1 UNL       -0.0202 ****
 20 C          -2.326012    0.617706   -0.172645 C         1 UNL       -0.1120 ****
 21 H          -2.317335    0.709504   -1.271535 H         1 UNL       -0.0458 ****
 22 C          -1.447246    1.765400    0.374430 C         1 UNL        0.1199 ****
 23 H          -1.510622    1.791102    1.467720 H         1 UNL       -0.0214 ****
 24 H          -1.839665    2.727102    0.026171 H         1 UNL       -0.0214 ****
 25 C           0.036065    1.670963   -0.032400 C         1 UNL       -0.2187 ****
 26 H           0.124226    1.794555   -1.121595 H         1 UNL        0.0210 ****
 27 H           0.572312    2.511162    0.419357 H         1 UNL        0.0210 ****
 28 C           0.656632    0.315798    0.362120 C         1 UNL        0.4137 ****
 29 C          -0.228906   -0.786651   -0.288834 C         1 UNL        0.0850 ****
 30 H          -0.231851   -0.550422   -1.367764 H         1 UNL       -0.0460 ****
 31 C           0.595471   -2.073624   -0.126721 C         1 UNL       -0.0961 ****
 32 H           0.320066   -2.842098   -0.853480 H         1 UNL        0.0185 ****
 33 H           0.430974   -2.515878    0.861153 H         1 UNL        0.0185 ****
 34 C           2.061358   -1.592434   -0.297733 C         1 UNL       -0.0597 ****
 35 H           2.693642   -1.972912    0.513612 H         1 UNL        0.0146 ****
 36 H           2.495069   -1.970888   -1.228343 H         1 UNL        0.0146 ****
 37 C           2.043542   -0.025922   -0.286814 C         1 UNL       -0.0439 ****
 38 H           1.983646    0.320856   -1.331029 H         1 UNL       -0.0320 ****
 39 C           0.734066    0.174772    1.899949 C         1 UNL       -0.4528 ****
 40 H          -0.251877    0.197669    2.370962 H         1 UNL        0.0908 ****
 41 H           1.211044   -0.762525    2.200576 H         1 UNL        0.0908 ****
 42 H           1.318679    0.992506    2.334109 H         1 UNL        0.0908 ****
 43 C           3.340821    0.581086    0.309094 C         1 UNL        0.2865 ****
 44 H           3.455042    0.188936    1.331273 H         1 UNL       -0.0643 ****
 45 C           3.314057    2.117925    0.389430 C         1 UNL       -0.3027 ****
 46 H           3.104892    2.557733   -0.593931 H         1 UNL        0.0608 ****
 47 H           4.275180    2.513828    0.730728 H         1 UNL        0.0608 ****
 48 H           2.555807    2.482637    1.085872 H         1 UNL        0.0608 ****
 49 C          -4.000288    0.846376    1.783525 C         1 UNL       -0.0948 ****
 50 H          -3.591313    1.788457    2.161463 H         1 UNL        0.0041 ****
 51 H          -5.053503    0.812828    2.075553 H         1 UNL        0.0041 ****
 52 H          -3.496940    0.020717    2.294709 H         1 UNL        0.0041 ****
 53 O          -2.237489   -3.194047   -0.033495 O         1 UNL       -0.3317 ****
 54 O          -2.641859   -3.240274    1.366710 O         1 UNL       -0.4042 ****
 55 H          -3.484711   -3.718312    1.300403 H         1 UNL        0.3900 ****
 56 O          -8.049634    0.927024   -1.006761 O         1 UNL       -0.7320 ****
 57 H          -8.359370    1.018855   -0.094715 H         1 UNL        0.4048 ****
 58 C           4.573664    0.108154   -0.501567 C         1 UNL       -0.0941 ****
 59 H           4.500014   -0.970555   -0.679053 H         1 UNL        0.0023 ****
 60 H           4.544515    0.581845   -1.495086 H         1 UNL        0.0023 ****
 61 C           5.938307    0.381534    0.151488 C         1 UNL        0.1135 ****
 62 H           6.079627    1.458328    0.295490 H         1 UNL       -0.0291 ****
 63 H           5.951994   -0.069027    1.155300 H         1 UNL       -0.0291 ****
 64 C           7.108110   -0.183875   -0.668275 C         1 UNL       -0.1179 ****
 65 H           7.121602    0.293440   -1.660307 H         1 UNL        0.0048 ****
 66 H           6.924021   -1.252575   -0.849269 H         1 UNL        0.0048 ****
 67 C           8.502397   -0.033207   -0.026210 C         1 UNL        0.4176 ****
 68 H           8.455022   -0.480363    0.978902 H         1 UNL       -0.0870 ****
 69 C           9.554159   -0.809973   -0.834242 C         1 UNL       -0.2868 ****
 70 H           9.641707   -0.406225   -1.851175 H         1 UNL        0.0541 ****
 71 H          10.543106   -0.746069   -0.366119 H         1 UNL        0.0541 ****
 72 H           9.290499   -1.870437   -0.919049 H         1 UNL        0.0541 ****
 73 C           8.925361    1.436454    0.131597 C         1 UNL       -0.2899 ****
 74 H           8.961119    1.937101   -0.844876 H         1 UNL        0.0543 ****
 75 H           9.923502    1.510466    0.578227 H         1 UNL        0.0543 ****
 76 H           8.236866    1.998590    0.770348 H         1 UNL        0.0543 ****
@<TRIPOS>BOND
    1     1     2 1
    2     1     3 1
    3     1    11 1
    4     1    56 1
    5     3     4 1
    6     3     5 1
    7     3     6 1
    8     6     7 1
    9     6    14 1
   10     7     8 1
   11     7    20 1
   12     7    49 1
   13     8     9 1
   14     8    10 1
   15     8    11 1
   16    11    12 1
   17    11    13 1
   18    14    15 1
   19    14    16 1
   20    16    17 1
   21    16    18 1
   22    16    53 1
   23    18    19 1
   24    18    20 1
   25    18    29 1
   26    20    21 1
   27    20    22 1
   28    22    23 1
   29    22    24 1
   30    22    25 1
   31    25    26 1
   32    25    27 1
   33    25    28 1
   34    28    29 1
   35    28    37 1
   36    28    39 1
   37    29    30 1
   38    29    31 1
   39    31    32 1
   40    31    33 1
   41    31    34 1
   42    34    35 1
   43    34    36 1
   44    34    37 1
   45    37    38 1
   46    37    43 1
   47    39    40 1
   48    39    41 1
   49    39    42 1
   50    43    44 1
   51    43    45 1
   52    43    58 1
   53    45    46 1
   54    45    47 1
   55    45    48 1
   56    49    50 1
   57    49    51 1
   58    49    52 1
   59    53    54 1
   60    54    55 1
   61    56    57 1
   62    58    59 1
   63    58    60 1
   64    58    61 1
   65    61    62 1
   66    61    63 1
   67    61    64 1
   68    64    65 1
   69    64    66 1
   70    64    67 1
   71    67    68 1
   72    67    69 1
   73    67    73 1
   74    69    70 1
   75    69    71 1
   76    69    72 1
   77    73    74 1
   78    73    75 1
   79    73    76 1
@<TRIPOS>SUBSTRUCTURE
      1  UNL              1 ****               0 ****  ****  


