@<TRIPOS>MOLECULE
UNL
   74    77     1     0     1
SMALL
USER_CHARGES
@<TRIPOS>ATOM
  1 O           8.201172   -0.486907   -0.202188 O         1 UNL       -0.7110 ****
  2 H           8.660027    0.358977   -0.290932 H         1 UNL        0.4224 ****
  3 C          -0.601191   -0.080252    0.004049 C         1 UNL        0.1031 ****
  4 C           0.332804    1.132861   -0.267457 C         1 UNL        0.0038 ****
  5 H           0.442800    1.169823   -1.365211 H         1 UNL        0.0229 ****
  6 C           1.757900    1.005316    0.286908 C         1 UNL       -0.0210 ****
  7 H           1.714945    0.941284    1.383482 H         1 UNL        0.0704 ****
  8 C           2.427688   -0.277241   -0.271397 C         1 UNL        0.0271 ****
  9 H           2.554008   -0.096781   -1.351858 H         1 UNL        0.0345 ****
 10 C          -1.921140    0.435740   -0.669199 C         1 UNL        0.0292 ****
 11 H          -1.755900    0.363889   -1.756188 H         1 UNL        0.0061 ****
 12 C           0.075406   -1.302535   -0.651343 C         1 UNL       -0.0918 ****
 13 H           0.099756   -1.147946   -1.739868 H         1 UNL        0.0150 ****
 14 H          -0.493181   -2.222306   -0.481695 H         1 UNL        0.0150 ****
 15 C           3.874441   -0.500562    0.293831 C         1 UNL        0.0706 ****
 16 C          -0.508473    2.356495    0.123549 C         1 UNL       -0.0981 ****
 17 H          -0.175270    3.271058   -0.377109 H         1 UNL        0.0290 ****
 18 H          -0.440744    2.544670    1.202293 H         1 UNL        0.0290 ****
 19 C           1.511789   -1.514858   -0.129721 C         1 UNL       -0.0720 ****
 20 H           1.458824   -1.819807    0.920863 H         1 UNL        0.0340 ****
 21 H           1.952161   -2.362941   -0.666254 H         1 UNL        0.0340 ****
 22 C          -1.952209    1.955311   -0.285439 C         1 UNL       -0.1212 ****
 23 H          -2.653257    2.125420    0.540410 H         1 UNL        0.0400 ****
 24 H          -2.309583    2.562787   -1.122245 H         1 UNL        0.0400 ****
 25 C           2.602172    2.236829   -0.078900 C         1 UNL       -0.0674 ****
 26 H           2.294093    3.099080    0.527347 H         1 UNL        0.0493 ****
 27 H           2.395913    2.526716   -1.122757 H         1 UNL        0.0493 ****
 28 C          -3.266790   -0.278251   -0.374951 C         1 UNL        0.0833 ****
 29 H          -3.475099   -0.158985    0.697623 H         1 UNL       -0.0116 ****
 30 C          -0.829718   -0.324479    1.513548 C         1 UNL       -0.1187 ****
 31 H          -1.445190   -1.216217    1.672021 H         1 UNL        0.0250 ****
 32 H           0.106354   -0.478522    2.055910 H         1 UNL        0.0250 ****
 33 H          -1.344903    0.514567    1.991073 H         1 UNL        0.0250 ****
 34 C           4.661169    0.817572    0.270701 C         1 UNL       -0.0860 ****
 35 C           4.614572   -1.523588   -0.623286 C         1 UNL       -0.0669 ****
 36 H           4.460401   -1.220599   -1.668339 H         1 UNL        0.0145 ****
 37 H           4.152806   -2.511021   -0.514911 H         1 UNL        0.0145 ****
 38 C           4.078198    2.011467    0.087454 C         1 UNL       -0.2429 ****
 39 H           4.709677    2.900186    0.057526 H         1 UNL        0.1334 ****
 40 C           3.843527   -1.037941    1.749823 C         1 UNL       -0.0833 ****
 41 H           3.453632   -2.059878    1.790985 H         1 UNL        0.0263 ****
 42 H           4.842846   -1.057995    2.191630 H         1 UNL        0.0263 ****
 43 H           3.220290   -0.406652    2.390772 H         1 UNL        0.0263 ****
 44 C           6.162573    0.716318    0.466189 C         1 UNL       -0.1902 ****
 45 H           6.615895    1.707634    0.337053 H         1 UNL        0.0805 ****
 46 H           6.402052    0.390046    1.488174 H         1 UNL        0.0805 ****
 47 C           6.123899   -1.647389   -0.368748 C         1 UNL       -0.0586 ****
 48 H           6.325861   -2.049666    0.631823 H         1 UNL        0.0577 ****
 49 H           6.568087   -2.348668   -1.084273 H         1 UNL        0.0577 ****
 50 C          -4.409164    0.415375   -1.161126 C         1 UNL       -0.0103 ****
 51 H          -4.383515    1.492256   -0.957559 H         1 UNL       -0.0043 ****
 52 H          -4.198796    0.304399   -2.235502 H         1 UNL       -0.0043 ****
 53 C           6.811056   -0.293695   -0.491524 C         1 UNL        0.2925 ****
 54 H           6.699096    0.071463   -1.525879 H         1 UNL        0.0149 ****
 55 C          -3.238941   -1.783772   -0.688774 C         1 UNL       -0.1210 ****
 56 H          -2.960605   -1.962499   -1.735176 H         1 UNL        0.0239 ****
 57 H          -4.219522   -2.241165   -0.525813 H         1 UNL        0.0239 ****
 58 H          -2.528803   -2.322998   -0.058316 H         1 UNL        0.0239 ****
 59 C          -5.846006   -0.075017   -0.891679 C         1 UNL        0.0066 ****
 60 H          -6.509498    0.476159   -1.570032 H         1 UNL        0.0022 ****
 61 H          -5.944848   -1.130144   -1.172157 H         1 UNL        0.0022 ****
 62 C          -6.316399    0.129614    0.557909 C         1 UNL       -0.0650 ****
 63 H          -6.133512    1.176740    0.841280 H         1 UNL        0.0039 ****
 64 H          -5.696576   -0.478054    1.230702 H         1 UNL        0.0039 ****
 65 C          -7.799810   -0.199443    0.850664 C         1 UNL        0.2607 ****
 66 H          -7.943219   -0.011230    1.925052 H         1 UNL       -0.0405 ****
 67 C          -8.137771   -1.679056    0.602896 C         1 UNL       -0.2078 ****
 68 H          -7.451870   -2.341373    1.144223 H         1 UNL        0.0404 ****
 69 H          -9.155927   -1.907816    0.937912 H         1 UNL        0.0404 ****
 70 H          -8.079247   -1.934096   -0.461500 H         1 UNL        0.0404 ****
 71 C          -8.774408    0.722871    0.099429 C         1 UNL       -0.2078 ****
 72 H          -8.542895    1.779305    0.279548 H         1 UNL        0.0404 ****
 73 H          -9.805806    0.546992    0.425844 H         1 UNL        0.0404 ****
 74 H          -8.742193    0.553024   -0.982907 H         1 UNL        0.0404 ****
@<TRIPOS>BOND
    1     1     2 1
    2     1    53 1
    3     3     4 1
    4     3    10 1
    5     3    12 1
    6     3    30 1
    7     4     5 1
    8     4     6 1
    9     4    16 1
   10     6     7 1
   11     6     8 1
   12     6    25 1
   13     8     9 1
   14     8    15 1
   15     8    19 1
   16    10    11 1
   17    10    22 1
   18    10    28 1
   19    12    13 1
   20    12    14 1
   21    12    19 1
   22    15    34 1
   23    15    35 1
   24    15    40 1
   25    16    17 1
   26    16    18 1
   27    16    22 1
   28    19    20 1
   29    19    21 1
   30    22    23 1
   31    22    24 1
   32    25    26 1
   33    25    27 1
   34    25    38 1
   35    28    29 1
   36    28    50 1
   37    28    55 1
   38    30    31 1
   39    30    32 1
   40    30    33 1
   41    34    38 1
   42    34    44 1
   43    35    36 1
   44    35    37 1
   45    35    47 1
   46    38    39 1
   47    40    41 1
   48    40    42 1
   49    40    43 1
   50    44    45 1
   51    44    46 1
   52    44    53 1
   53    47    48 1
   54    47    49 1
   55    47    53 1
   56    50    51 1
   57    50    52 1
   58    50    59 1
   59    53    54 1
   60    55    56 1
   61    55    57 1
   62    55    58 1
   63    59    60 1
   64    59    61 1
   65    59    62 1
   66    62    63 1
   67    62    64 1
   68    62    65 1
   69    65    66 1
   70    65    67 1
   71    65    71 1
   72    67    68 1
   73    67    69 1
   74    67    70 1
   75    71    72 1
   76    71    73 1
   77    71    74 1
@<TRIPOS>SUBSTRUCTURE
      1  UNL              1 ****               0 ****  ****  


