@<TRIPOS>MOLECULE
UNL
   74    77     1     0     1
SMALL
USER_CHARGES
@<TRIPOS>ATOM
  1 O           7.830969    0.998622    0.174227 O         1 UNL       -0.7110 ****
  2 H           8.331867    0.560127   -0.526320 H         1 UNL        0.4224 ****
  3 C          -0.803423   -0.657842    0.336462 C         1 UNL        0.1031 ****
  4 C           0.196110   -1.369056   -0.610839 C         1 UNL        0.0038 ****
  5 H           0.520910   -2.270665   -0.063804 H         1 UNL        0.0229 ****
  6 C           1.480255   -0.582217   -0.899592 C         1 UNL       -0.0210 ****
  7 H           1.226214    0.349848   -1.423858 H         1 UNL        0.0704 ****
  8 C           2.192655   -0.239311    0.438410 C         1 UNL        0.0271 ****
  9 H           2.534827   -1.206891    0.841611 H         1 UNL        0.0345 ****
 10 C          -1.938183   -1.728681    0.368863 C         1 UNL        0.0292 ****
 11 H          -1.496798   -2.567640    0.926467 H         1 UNL        0.0061 ****
 12 C          -0.080672   -0.434657    1.676593 C         1 UNL       -0.0918 ****
 13 H           0.148309   -1.414145    2.121008 H         1 UNL        0.0150 ****
 14 H          -0.724259    0.091985    2.394183 H         1 UNL        0.0150 ****
 15 C           3.492733    0.614690    0.226765 C         1 UNL        0.0706 ****
 16 C          -0.677099   -1.865511   -1.779491 C         1 UNL       -0.0981 ****
 17 H          -0.240650   -2.734088   -2.282613 H         1 UNL        0.0290 ****
 18 H          -0.788873   -1.084030   -2.541359 H         1 UNL        0.0290 ****
 19 C           1.227483    0.362999    1.490874 C         1 UNL       -0.0720 ****
 20 H           0.974019    1.392377    1.217871 H         1 UNL        0.0340 ****
 21 H           1.736642    0.426906    2.459007 H         1 UNL        0.0340 ****
 22 C          -2.051220   -2.196046   -1.116594 C         1 UNL       -0.1212 ****
 23 H          -2.860604   -1.677601   -1.638245 H         1 UNL        0.0400 ****
 24 H          -2.281177   -3.264959   -1.175493 H         1 UNL        0.0400 ****
 25 C           2.429379   -1.386287   -1.802131 C         1 UNL       -0.0674 ****
 26 H           2.044534   -1.405371   -2.830544 H         1 UNL        0.0493 ****
 27 H           2.440975   -2.439849   -1.476424 H         1 UNL        0.0493 ****
 28 C          -3.263155   -1.394479    1.113659 C         1 UNL        0.0833 ****
 29 H          -2.996567   -0.721791    1.943415 H         1 UNL       -0.0116 ****
 30 C          -1.302022    0.690281   -0.229184 C         1 UNL       -0.1187 ****
 31 H          -2.010219    1.156793    0.464038 H         1 UNL        0.0250 ****
 32 H          -0.485563    1.400558   -0.379840 H         1 UNL        0.0250 ****
 33 H          -1.807183    0.574745   -1.192279 H         1 UNL        0.0250 ****
 34 C           4.321630    0.039770   -0.930989 C         1 UNL       -0.0860 ****
 35 C           4.355277    0.539632    1.525359 C         1 UNL       -0.0669 ****
 36 H           4.417914   -0.513046    1.834710 H         1 UNL        0.0145 ****
 37 H           3.842841    1.071205    2.334495 H         1 UNL        0.0145 ****
 38 C           3.834575   -0.855076   -1.803247 C         1 UNL       -0.2429 ****
 39 H           4.495555   -1.235252   -2.582979 H         1 UNL        0.1334 ****
 40 C           3.159153    2.097768   -0.087828 C         1 UNL       -0.0833 ****
 41 H           2.729812    2.604924    0.781929 H         1 UNL        0.0263 ****
 42 H           4.052480    2.657280   -0.376160 H         1 UNL        0.0263 ****
 43 H           2.448429    2.175811   -0.916325 H         1 UNL        0.0263 ****
 44 C           5.751088    0.534037   -1.053995 C         1 UNL       -0.1902 ****
 45 H           6.260167   -0.015433   -1.856334 H         1 UNL        0.0805 ****
 46 H           5.773955    1.596563   -1.334713 H         1 UNL        0.0805 ****
 47 C           5.780712    1.094300    1.389097 C         1 UNL       -0.0586 ****
 48 H           5.769189    2.172428    1.185805 H         1 UNL        0.0577 ****
 49 H           6.326677    0.958465    2.329601 H         1 UNL        0.0577 ****
 50 C          -4.345750   -0.674867    0.271803 C         1 UNL       -0.0103 ****
 51 H          -3.877501    0.023232   -0.427039 H         1 UNL       -0.0043 ****
 52 H          -4.871078   -1.416293   -0.347889 H         1 UNL       -0.0043 ****
 53 C           6.532102    0.399629    0.261112 C         1 UNL        0.2925 ****
 54 H           6.637248   -0.670061    0.507020 H         1 UNL        0.0149 ****
 55 C          -3.842970   -2.678345    1.742426 C         1 UNL       -0.1210 ****
 56 H          -4.055588   -3.427539    0.969568 H         1 UNL        0.0239 ****
 57 H          -4.776629   -2.485920    2.280762 H         1 UNL        0.0239 ****
 58 H          -3.138849   -3.124194    2.453708 H         1 UNL        0.0239 ****
 59 C          -5.377861    0.089931    1.118140 C         1 UNL        0.0066 ****
 60 H          -5.790509   -0.577327    1.885254 H         1 UNL        0.0022 ****
 61 H          -4.867333    0.892414    1.667985 H         1 UNL        0.0022 ****
 62 C          -6.559389    0.668046    0.317684 C         1 UNL       -0.0650 ****
 63 H          -7.280702    1.106716    1.023162 H         1 UNL        0.0039 ****
 64 H          -7.085248   -0.163147   -0.174098 H         1 UNL        0.0039 ****
 65 C          -6.225343    1.732095   -0.749704 C         1 UNL        0.2607 ****
 66 H          -5.509675    1.295122   -1.460832 H         1 UNL       -0.0405 ****
 67 C          -5.580776    2.988440   -0.142890 C         1 UNL       -0.2078 ****
 68 H          -4.636416    2.764962    0.363776 H         1 UNL        0.0404 ****
 69 H          -5.369783    3.733822   -0.918140 H         1 UNL        0.0404 ****
 70 H          -6.251429    3.453502    0.591426 H         1 UNL        0.0404 ****
 71 C          -7.489684    2.104286   -1.540757 C         1 UNL       -0.2078 ****
 72 H          -7.938858    1.223406   -2.013740 H         1 UNL        0.0404 ****
 73 H          -7.266512    2.831628   -2.329696 H         1 UNL        0.0404 ****
 74 H          -8.245950    2.550252   -0.881933 H         1 UNL        0.0404 ****
@<TRIPOS>BOND
    1     1     2 1
    2     1    53 1
    3     3     4 1
    4     3    10 1
    5     3    12 1
    6     3    30 1
    7     4     5 1
    8     4     6 1
    9     4    16 1
   10     6     7 1
   11     6     8 1
   12     6    25 1
   13     8     9 1
   14     8    15 1
   15     8    19 1
   16    10    11 1
   17    10    22 1
   18    10    28 1
   19    12    13 1
   20    12    14 1
   21    12    19 1
   22    15    34 1
   23    15    35 1
   24    15    40 1
   25    16    17 1
   26    16    18 1
   27    16    22 1
   28    19    20 1
   29    19    21 1
   30    22    23 1
   31    22    24 1
   32    25    26 1
   33    25    27 1
   34    25    38 1
   35    28    29 1
   36    28    50 1
   37    28    55 1
   38    30    31 1
   39    30    32 1
   40    30    33 1
   41    34    38 1
   42    34    44 1
   43    35    36 1
   44    35    37 1
   45    35    47 1
   46    38    39 1
   47    40    41 1
   48    40    42 1
   49    40    43 1
   50    44    45 1
   51    44    46 1
   52    44    53 1
   53    47    48 1
   54    47    49 1
   55    47    53 1
   56    50    51 1
   57    50    52 1
   58    50    59 1
   59    53    54 1
   60    55    56 1
   61    55    57 1
   62    55    58 1
   63    59    60 1
   64    59    61 1
   65    59    62 1
   66    62    63 1
   67    62    64 1
   68    62    65 1
   69    65    66 1
   70    65    67 1
   71    65    71 1
   72    67    68 1
   73    67    69 1
   74    67    70 1
   75    71    72 1
   76    71    73 1
   77    71    74 1
@<TRIPOS>SUBSTRUCTURE
      1  UNL              1 ****               0 ****  ****  


