@<TRIPOS>MOLECULE
UNL
   74    77     1     0     1
SMALL
USER_CHARGES
@<TRIPOS>ATOM
  1 O          -7.058508    2.144513   -0.119080 O         1 UNL       -0.7110 ****
  2 H          -7.594738    1.868394   -0.874173 H         1 UNL        0.4224 ****
  3 C           1.009005   -1.360659    0.354669 C         1 UNL        0.1031 ****
  4 C           0.029400   -1.568350   -0.837032 C         1 UNL        0.0038 ****
  5 H           0.271860   -0.764862   -1.553310 H         1 UNL        0.0229 ****
  6 C          -1.457574   -1.384756   -0.506772 C         1 UNL       -0.0210 ****
  7 H          -1.768406   -2.153359    0.214638 H         1 UNL        0.0704 ****
  8 C          -1.690389    0.019139    0.113227 C         1 UNL        0.0271 ****
  9 H          -1.486557    0.736250   -0.699309 H         1 UNL        0.0345 ****
 10 C           2.361910   -1.636066   -0.388823 C         1 UNL        0.0292 ****
 11 H           2.470220   -0.786467   -1.076835 H         1 UNL        0.0061 ****
 12 C           0.790220    0.077960    0.862181 C         1 UNL       -0.0918 ****
 13 H           1.087335    0.783319    0.073289 H         1 UNL        0.0150 ****
 14 H           1.421894    0.294531    1.731879 H         1 UNL        0.0150 ****
 15 C          -3.186058    0.258073    0.524273 C         1 UNL        0.0706 ****
 16 C           0.494621   -2.884361   -1.486110 C         1 UNL       -0.0981 ****
 17 H           0.212515   -2.950412   -2.541670 H         1 UNL        0.0290 ****
 18 H           0.038507   -3.745913   -0.982761 H         1 UNL        0.0290 ****
 19 C          -0.682615    0.331410    1.245079 C         1 UNL       -0.0720 ****
 20 H          -0.920430   -0.265696    2.131624 H         1 UNL        0.0340 ****
 21 H          -0.786292    1.378534    1.551089 H         1 UNL        0.0340 ****
 22 C           2.037580   -2.873029   -1.286733 C         1 UNL       -0.1212 ****
 23 H           2.374258   -3.803660   -0.819043 H         1 UNL        0.0400 ****
 24 H           2.572078   -2.799359   -2.240271 H         1 UNL        0.0400 ****
 25 C          -2.323939   -1.548817   -1.766005 C         1 UNL       -0.0674 ****
 26 H          -2.373306   -2.607369   -2.054073 H         1 UNL        0.0493 ****
 27 H          -1.839335   -1.038545   -2.615091 H         1 UNL        0.0493 ****
 28 C           3.742407   -1.747064    0.321101 C         1 UNL        0.0833 ****
 29 H           4.436979   -1.980532   -0.502832 H         1 UNL       -0.0116 ****
 30 C           0.750659   -2.371519    1.496294 C         1 UNL       -0.1187 ****
 31 H           1.335516   -2.110260    2.383005 H         1 UNL        0.0250 ****
 32 H          -0.299202   -2.387249    1.799260 H         1 UNL        0.0250 ****
 33 H           1.019450   -3.392960    1.214779 H         1 UNL        0.0250 ****
 34 C          -4.125501   -0.228929   -0.588134 C         1 UNL       -0.0860 ****
 35 C          -3.411699    1.790868    0.712885 C         1 UNL       -0.0669 ****
 36 H          -2.976805    2.309976   -0.152620 H         1 UNL        0.0145 ****
 37 H          -2.857265    2.135551    1.592514 H         1 UNL        0.0145 ****
 38 C          -3.716782   -1.011658   -1.597636 C         1 UNL       -0.2429 ****
 39 H          -4.440012   -1.293294   -2.363837 H         1 UNL        0.1334 ****
 40 C          -3.543562   -0.483576    1.840091 C         1 UNL       -0.0833 ****
 41 H          -3.025436   -0.046016    2.699227 H         1 UNL        0.0263 ****
 42 H          -4.614574   -0.432323    2.051086 H         1 UNL        0.0263 ****
 43 H          -3.276733   -1.543330    1.781598 H         1 UNL        0.0263 ****
 44 C          -5.571610    0.222644   -0.501811 C         1 UNL       -0.1902 ****
 45 H          -6.113660   -0.113279   -1.395223 H         1 UNL        0.0805 ****
 46 H          -6.072666   -0.235226    0.362810 H         1 UNL        0.0805 ****
 47 C          -4.880501    2.217502    0.850368 C         1 UNL       -0.0586 ****
 48 H          -5.328933    1.807962    1.764132 H         1 UNL        0.0577 ****
 49 H          -4.947470    3.308486    0.930057 H         1 UNL        0.0577 ****
 50 C           4.256408   -0.428532    0.946920 C         1 UNL       -0.0103 ****
 51 H           3.581842   -0.112859    1.753795 H         1 UNL       -0.0043 ****
 52 H           5.216171   -0.650299    1.435537 H         1 UNL       -0.0043 ****
 53 C          -5.700786    1.744422   -0.342542 C         1 UNL        0.2925 ****
 54 H          -5.319904    2.232960   -1.254706 H         1 UNL        0.0149 ****
 55 C           3.907882   -2.887503    1.346172 C         1 UNL       -0.1210 ****
 56 H           3.432767   -2.652559    2.303009 H         1 UNL        0.0239 ****
 57 H           4.973274   -3.049166    1.545957 H         1 UNL        0.0239 ****
 58 H           3.496357   -3.837670    0.993670 H         1 UNL        0.0239 ****
 59 C           4.480326    0.741893   -0.023469 C         1 UNL        0.0066 ****
 60 H           5.111036    0.395925   -0.853852 H         1 UNL        0.0022 ****
 61 H           3.527093    1.050709   -0.466597 H         1 UNL        0.0022 ****
 62 C           5.139298    1.948058    0.665805 C         1 UNL       -0.0650 ****
 63 H           6.090948    1.622018    1.109960 H         1 UNL        0.0039 ****
 64 H           4.504654    2.260405    1.507850 H         1 UNL        0.0039 ****
 65 C           5.415983    3.186447   -0.218302 C         1 UNL        0.2607 ****
 66 H           5.883627    3.930287    0.443710 H         1 UNL       -0.0405 ****
 67 C           4.129062    3.821271   -0.771005 C         1 UNL       -0.2078 ****
 68 H           3.414160    4.037865    0.031528 H         1 UNL        0.0404 ****
 69 H           4.349175    4.763828   -1.285194 H         1 UNL        0.0404 ****
 70 H           3.631918    3.164036   -1.493774 H         1 UNL        0.0404 ****
 71 C           6.417428    2.895591   -1.348434 C         1 UNL       -0.2078 ****
 72 H           7.340761    2.450762   -0.958963 H         1 UNL        0.0404 ****
 73 H           6.687885    3.817184   -1.876401 H         1 UNL        0.0404 ****
 74 H           6.000454    2.204831   -2.090372 H         1 UNL        0.0404 ****
@<TRIPOS>BOND
    1     1     2 1
    2     1    53 1
    3     3     4 1
    4     3    10 1
    5     3    12 1
    6     3    30 1
    7     4     5 1
    8     4     6 1
    9     4    16 1
   10     6     7 1
   11     6     8 1
   12     6    25 1
   13     8     9 1
   14     8    15 1
   15     8    19 1
   16    10    11 1
   17    10    22 1
   18    10    28 1
   19    12    13 1
   20    12    14 1
   21    12    19 1
   22    15    34 1
   23    15    35 1
   24    15    40 1
   25    16    17 1
   26    16    18 1
   27    16    22 1
   28    19    20 1
   29    19    21 1
   30    22    23 1
   31    22    24 1
   32    25    26 1
   33    25    27 1
   34    25    38 1
   35    28    29 1
   36    28    50 1
   37    28    55 1
   38    30    31 1
   39    30    32 1
   40    30    33 1
   41    34    38 1
   42    34    44 1
   43    35    36 1
   44    35    37 1
   45    35    47 1
   46    38    39 1
   47    40    41 1
   48    40    42 1
   49    40    43 1
   50    44    45 1
   51    44    46 1
   52    44    53 1
   53    47    48 1
   54    47    49 1
   55    47    53 1
   56    50    51 1
   57    50    52 1
   58    50    59 1
   59    53    54 1
   60    55    56 1
   61    55    57 1
   62    55    58 1
   63    59    60 1
   64    59    61 1
   65    59    62 1
   66    62    63 1
   67    62    64 1
   68    62    65 1
   69    65    66 1
   70    65    67 1
   71    65    71 1
   72    67    68 1
   73    67    69 1
   74    67    70 1
   75    71    72 1
   76    71    73 1
   77    71    74 1
@<TRIPOS>SUBSTRUCTURE
      1  UNL              1 ****               0 ****  ****  


