@<TRIPOS>MOLECULE
UNL
   74    77     1     0     1
SMALL
USER_CHARGES
@<TRIPOS>ATOM
  1 O          -8.095649    0.222844   -1.113544 O         1 UNL       -0.7110 ****
  2 H          -8.482273   -0.638780   -1.318664 H         1 UNL        0.4224 ****
  3 C           0.546220    0.243121    0.619930 C         1 UNL        0.1031 ****
  4 C          -0.254000   -0.998212    0.133836 C         1 UNL        0.0038 ****
  5 H          -0.169536   -0.980756   -0.966667 H         1 UNL        0.0229 ****
  6 C          -1.758458   -0.972062    0.433937 C         1 UNL       -0.0210 ****
  7 H          -1.909442   -0.965863    1.522761 H         1 UNL        0.0704 ****
  8 C          -2.395184    0.304229   -0.175324 C         1 UNL        0.0271 ****
  9 H          -2.321754    0.176616   -1.268141 H         1 UNL        0.0345 ****
 10 C           1.991050   -0.169410    0.167672 C         1 UNL        0.0292 ****
 11 H           2.013418   -0.045953   -0.926953 H         1 UNL        0.0061 ****
 12 C          -0.076439    1.464112   -0.089008 C         1 UNL       -0.0918 ****
 13 H           0.097324    1.367786   -1.170623 H         1 UNL        0.0150 ****
 14 H           0.399323    2.400410    0.219201 H         1 UNL        0.0150 ****
 15 C          -3.928597    0.424419    0.135735 C         1 UNL        0.0706 ****
 16 C           0.576507   -2.198138    0.611747 C         1 UNL       -0.0981 ****
 17 H           0.388849   -3.099764    0.020172 H         1 UNL        0.0290 ****
 18 H           0.334152   -2.447320    1.652327 H         1 UNL        0.0290 ****
 19 C          -1.591523    1.576242    0.180516 C         1 UNL       -0.0720 ****
 20 H          -1.739341    1.825864    1.236608 H         1 UNL        0.0340 ****
 21 H          -1.980896    2.429318   -0.386633 H         1 UNL        0.0340 ****
 22 C           2.043355   -1.704536    0.481047 C         1 UNL       -0.1212 ****
 23 H           2.600321   -1.885670    1.408189 H         1 UNL        0.0400 ****
 24 H           2.573791   -2.246848   -0.307338 H         1 UNL        0.0400 ****
 25 C          -2.453354   -2.222084   -0.129822 C         1 UNL       -0.0674 ****
 26 H          -2.205116   -3.099900    0.481515 H         1 UNL        0.0493 ****
 27 H          -2.052943   -2.443826   -1.133166 H         1 UNL        0.0493 ****
 28 C           3.220671    0.592805    0.726873 C         1 UNL        0.0833 ****
 29 H           3.252711    0.426576    1.814689 H         1 UNL       -0.0116 ****
 30 C           0.494715    0.415642    2.155524 C         1 UNL       -0.1187 ****
 31 H           1.023004    1.324989    2.460474 H         1 UNL        0.0250 ****
 32 H          -0.528422    0.496466    2.530770 H         1 UNL        0.0250 ****
 33 H           0.964620   -0.423150    2.678071 H         1 UNL        0.0250 ****
 34 C          -4.621104   -0.927938   -0.084183 C         1 UNL       -0.0860 ****
 35 C          -4.556861    1.457415   -0.851085 C         1 UNL       -0.0669 ****
 36 H          -4.206134    1.219417   -1.865017 H         1 UNL        0.0145 ****
 37 H          -4.179498    2.459291   -0.619111 H         1 UNL        0.0145 ****
 38 C          -3.946564   -2.079686   -0.215524 C         1 UNL       -0.2429 ****
 39 H          -4.510352   -2.995742   -0.395682 H         1 UNL        0.1334 ****
 40 C          -4.182326    0.883285    1.596794 C         1 UNL       -0.0833 ****
 41 H          -3.865120    1.919367    1.751661 H         1 UNL        0.0263 ****
 42 H          -5.242711    0.830571    1.855723 H         1 UNL        0.0263 ****
 43 H          -3.644750    0.249560    2.308938 H         1 UNL        0.0263 ****
 44 C          -6.136949   -0.911856   -0.151181 C         1 UNL       -0.1902 ****
 45 H          -6.502673   -1.916079   -0.401496 H         1 UNL        0.0805 ****
 46 H          -6.568161   -0.653002    0.826218 H         1 UNL        0.0805 ****
 47 C          -6.092080    1.492192   -0.861395 C         1 UNL       -0.0586 ****
 48 H          -6.487836    1.830014    0.104521 H         1 UNL        0.0577 ****
 49 H          -6.445390    2.207733   -1.612558 H         1 UNL        0.0577 ****
 50 C           4.527511    0.004056    0.138519 C         1 UNL       -0.0103 ****
 51 H           4.511174   -1.087232    0.242886 H         1 UNL       -0.0043 ****
 52 H           4.542723    0.205880   -0.942438 H         1 UNL       -0.0043 ****
 53 C          -6.667598    0.114569   -1.162500 C         1 UNL        0.2925 ****
 54 H          -6.357450   -0.188746   -2.176196 H         1 UNL        0.0149 ****
 55 C           3.159429    2.110584    0.481011 C         1 UNL       -0.1210 ****
 56 H           3.052186    2.330489   -0.588810 H         1 UNL        0.0239 ****
 57 H           4.069909    2.605435    0.831720 H         1 UNL        0.0239 ****
 58 H           2.322259    2.579505    1.002365 H         1 UNL        0.0239 ****
 59 C           5.825484    0.514643    0.787486 C         1 UNL        0.0066 ****
 60 H           5.972309    1.578889    0.570776 H         1 UNL        0.0022 ****
 61 H           5.722812    0.442554    1.879665 H         1 UNL        0.0022 ****
 62 C           7.084982   -0.270659    0.376922 C         1 UNL       -0.0650 ****
 63 H           6.953104   -1.321695    0.672287 H         1 UNL        0.0039 ****
 64 H           7.938794    0.103505    0.961247 H         1 UNL        0.0039 ****
 65 C           7.470146   -0.230341   -1.117371 C         1 UNL        0.2607 ****
 66 H           6.623626   -0.619276   -1.701281 H         1 UNL       -0.0405 ****
 67 C           8.672340   -1.151449   -1.380175 C         1 UNL       -0.2078 ****
 68 H           8.462015   -2.181429   -1.069725 H         1 UNL        0.0404 ****
 69 H           8.935962   -1.168806   -2.443879 H         1 UNL        0.0404 ****
 70 H           9.555318   -0.810123   -0.824522 H         1 UNL        0.0404 ****
 71 C           7.766406    1.195467   -1.608821 C         1 UNL       -0.2078 ****
 72 H           6.899144    1.856063   -1.508175 H         1 UNL        0.0404 ****
 73 H           8.056802    1.192459   -2.665614 H         1 UNL        0.0404 ****
 74 H           8.592658    1.639981   -1.038697 H         1 UNL        0.0404 ****
@<TRIPOS>BOND
    1     1     2 1
    2     1    53 1
    3     3     4 1
    4     3    10 1
    5     3    12 1
    6     3    30 1
    7     4     5 1
    8     4     6 1
    9     4    16 1
   10     6     7 1
   11     6     8 1
   12     6    25 1
   13     8     9 1
   14     8    15 1
   15     8    19 1
   16    10    11 1
   17    10    22 1
   18    10    28 1
   19    12    13 1
   20    12    14 1
   21    12    19 1
   22    15    34 1
   23    15    35 1
   24    15    40 1
   25    16    17 1
   26    16    18 1
   27    16    22 1
   28    19    20 1
   29    19    21 1
   30    22    23 1
   31    22    24 1
   32    25    26 1
   33    25    27 1
   34    25    38 1
   35    28    29 1
   36    28    50 1
   37    28    55 1
   38    30    31 1
   39    30    32 1
   40    30    33 1
   41    34    38 1
   42    34    44 1
   43    35    36 1
   44    35    37 1
   45    35    47 1
   46    38    39 1
   47    40    41 1
   48    40    42 1
   49    40    43 1
   50    44    45 1
   51    44    46 1
   52    44    53 1
   53    47    48 1
   54    47    49 1
   55    47    53 1
   56    50    51 1
   57    50    52 1
   58    50    59 1
   59    53    54 1
   60    55    56 1
   61    55    57 1
   62    55    58 1
   63    59    60 1
   64    59    61 1
   65    59    62 1
   66    62    63 1
   67    62    64 1
   68    62    65 1
   69    65    66 1
   70    65    67 1
   71    65    71 1
   72    67    68 1
   73    67    69 1
   74    67    70 1
   75    71    72 1
   76    71    73 1
   77    71    74 1
@<TRIPOS>SUBSTRUCTURE
      1  UNL              1 ****               0 ****  ****  


