@<TRIPOS>MOLECULE
UNL
   74    77     1     0     1
SMALL
USER_CHARGES
@<TRIPOS>ATOM
  1 O           7.673376    1.541219   -0.788798 O         1 UNL       -0.7110 ****
  2 H           8.009564    2.115588   -0.088065 H         1 UNL        0.4224 ****
  3 C          -0.661057   -1.168681    0.129711 C         1 UNL        0.1031 ****
  4 C           0.037661   -0.136413    1.058568 C         1 UNL        0.0038 ****
  5 H          -0.188438    0.847895    0.613137 H         1 UNL        0.0229 ****
  6 C           1.568560   -0.225162    1.107219 C         1 UNL       -0.0210 ****
  7 H           1.861429   -1.199914    1.522605 H         1 UNL        0.0704 ****
  8 C           2.148963   -0.086679   -0.324702 C         1 UNL        0.0271 ****
  9 H           1.929457    0.949466   -0.631579 H         1 UNL        0.0345 ****
 10 C          -2.160033   -0.779797    0.376773 C         1 UNL        0.0292 ****
 11 H          -2.308746    0.175245   -0.148579 H         1 UNL        0.0061 ****
 12 C          -0.110208   -0.921040   -1.289556 C         1 UNL       -0.0918 ****
 13 H          -0.427326    0.078713   -1.620274 H         1 UNL        0.0150 ****
 14 H          -0.520562   -1.632575   -2.013470 H         1 UNL        0.0150 ****
 15 C           3.712445   -0.217477   -0.360267 C         1 UNL        0.0706 ****
 16 C          -0.753555   -0.207319    2.374057 C         1 UNL       -0.0981 ****
 17 H          -0.678499    0.716356    2.956573 H         1 UNL        0.0290 ****
 18 H          -0.373170   -1.014507    3.012418 H         1 UNL        0.0290 ****
 19 C           1.429426   -1.012589   -1.332970 C         1 UNL       -0.0720 ****
 20 H           1.721147   -2.053166   -1.155458 H         1 UNL        0.0340 ****
 21 H           1.761151   -0.777697   -2.350715 H         1 UNL        0.0340 ****
 22 C          -2.209728   -0.497956    1.914990 C         1 UNL       -0.1212 ****
 23 H          -2.617833   -1.365011    2.447593 H         1 UNL        0.0400 ****
 24 H          -2.877089    0.340552    2.138172 H         1 UNL        0.0400 ****
 25 C           2.154086    0.868054    2.015609 C         1 UNL       -0.0674 ****
 26 H           1.967752    0.622566    3.069624 H         1 UNL        0.0493 ****
 27 H           1.620287    1.816815    1.839230 H         1 UNL        0.0493 ****
 28 C          -3.284256   -1.739682   -0.085565 C         1 UNL        0.0833 ****
 29 H          -3.138592   -2.692746    0.443689 H         1 UNL       -0.0116 ****
 30 C          -0.405489   -2.629478    0.565915 C         1 UNL       -0.1187 ****
 31 H          -0.869053   -3.328620   -0.138338 H         1 UNL        0.0250 ****
 32 H           0.659386   -2.871345    0.605495 H         1 UNL        0.0250 ****
 33 H          -0.821089   -2.841386    1.555781 H         1 UNL        0.0250 ****
 34 C           4.338337    0.601912    0.777161 C         1 UNL       -0.0860 ****
 35 C           4.229221    0.359805   -1.715002 C         1 UNL       -0.0669 ****
 36 H           3.743131    1.331339   -1.880881 H         1 UNL        0.0145 ****
 37 H           3.908534   -0.291932   -2.534966 H         1 UNL        0.0145 ****
 38 C           3.625915    1.084461    1.805938 C         1 UNL       -0.2429 ****
 39 H           4.139803    1.680227    2.561216 H         1 UNL        0.1334 ****
 40 C           4.166795   -1.695066   -0.219690 C         1 UNL       -0.0833 ****
 41 H           3.898191   -2.282173   -1.103557 H         1 UNL        0.0263 ****
 42 H           5.250331   -1.772224   -0.100548 H         1 UNL        0.0263 ****
 43 H           3.711744   -2.166590    0.656857 H         1 UNL        0.0263 ****
 44 C           5.832196    0.853848    0.690392 C         1 UNL       -0.1902 ****
 45 H           6.138302    1.522416    1.505371 H         1 UNL        0.0805 ****
 46 H           6.394127   -0.081778    0.821216 H         1 UNL        0.0805 ****
 47 C           5.750206    0.554719   -1.797610 C         1 UNL       -0.0586 ****
 48 H           6.276860   -0.406219   -1.742980 H         1 UNL        0.0577 ****
 49 H           6.018362    1.005089   -2.760071 H         1 UNL        0.0577 ****
 50 C          -4.692525   -1.242746    0.338442 C         1 UNL       -0.0103 ****
 51 H          -5.416546   -2.020773    0.056671 H         1 UNL       -0.0043 ****
 52 H          -4.740836   -1.175492    1.432570 H         1 UNL       -0.0043 ****
 53 C           6.249140    1.442645   -0.665146 C         1 UNL        0.2925 ****
 54 H           5.801552    2.444566   -0.772780 H         1 UNL        0.0149 ****
 55 C          -3.256049   -2.047030   -1.594614 C         1 UNL       -0.1210 ****
 56 H          -3.224968   -1.132995   -2.198122 H         1 UNL        0.0239 ****
 57 H          -4.151547   -2.607803   -1.887784 H         1 UNL        0.0239 ****
 58 H          -2.389571   -2.652394   -1.872352 H         1 UNL        0.0239 ****
 59 C          -5.160344    0.095672   -0.257573 C         1 UNL        0.0066 ****
 60 H          -4.469352    0.893804    0.040231 H         1 UNL        0.0022 ****
 61 H          -5.121799    0.045155   -1.352384 H         1 UNL        0.0022 ****
 62 C          -6.586095    0.456209    0.191691 C         1 UNL       -0.0650 ****
 63 H          -6.613172    0.477918    1.290923 H         1 UNL        0.0039 ****
 64 H          -7.264549   -0.354750   -0.110622 H         1 UNL        0.0039 ****
 65 C          -7.161814    1.791877   -0.333922 C         1 UNL        0.2607 ****
 66 H          -8.175870    1.868572    0.085745 H         1 UNL       -0.0405 ****
 67 C          -7.304413    1.814529   -1.864868 C         1 UNL       -0.2078 ****
 68 H          -7.872100    0.948729   -2.225727 H         1 UNL        0.0404 ****
 69 H          -7.829206    2.718594   -2.194276 H         1 UNL        0.0404 ****
 70 H          -6.327617    1.804674   -2.362129 H         1 UNL        0.0404 ****
 71 C          -6.374219    3.014630    0.165437 C         1 UNL       -0.2078 ****
 72 H          -6.277201    3.008019    1.257551 H         1 UNL        0.0404 ****
 73 H          -6.877861    3.945563   -0.119129 H         1 UNL        0.0404 ****
 74 H          -5.364526    3.047007   -0.260002 H         1 UNL        0.0404 ****
@<TRIPOS>BOND
    1     1     2 1
    2     1    53 1
    3     3     4 1
    4     3    10 1
    5     3    12 1
    6     3    30 1
    7     4     5 1
    8     4     6 1
    9     4    16 1
   10     6     7 1
   11     6     8 1
   12     6    25 1
   13     8     9 1
   14     8    15 1
   15     8    19 1
   16    10    11 1
   17    10    22 1
   18    10    28 1
   19    12    13 1
   20    12    14 1
   21    12    19 1
   22    15    34 1
   23    15    35 1
   24    15    40 1
   25    16    17 1
   26    16    18 1
   27    16    22 1
   28    19    20 1
   29    19    21 1
   30    22    23 1
   31    22    24 1
   32    25    26 1
   33    25    27 1
   34    25    38 1
   35    28    29 1
   36    28    50 1
   37    28    55 1
   38    30    31 1
   39    30    32 1
   40    30    33 1
   41    34    38 1
   42    34    44 1
   43    35    36 1
   44    35    37 1
   45    35    47 1
   46    38    39 1
   47    40    41 1
   48    40    42 1
   49    40    43 1
   50    44    45 1
   51    44    46 1
   52    44    53 1
   53    47    48 1
   54    47    49 1
   55    47    53 1
   56    50    51 1
   57    50    52 1
   58    50    59 1
   59    53    54 1
   60    55    56 1
   61    55    57 1
   62    55    58 1
   63    59    60 1
   64    59    61 1
   65    59    62 1
   66    62    63 1
   67    62    64 1
   68    62    65 1
   69    65    66 1
   70    65    67 1
   71    65    71 1
   72    67    68 1
   73    67    69 1
   74    67    70 1
   75    71    72 1
   76    71    73 1
   77    71    74 1
@<TRIPOS>SUBSTRUCTURE
      1  UNL              1 ****               0 ****  ****  


