@<TRIPOS>MOLECULE
UNL
   74    77     1     0     1
SMALL
USER_CHARGES
@<TRIPOS>ATOM
  1 O          -7.596000    1.262712   -0.265956 O         1 UNL       -0.7110 ****
  2 H          -8.192779    0.553283    0.007010 H         1 UNL        0.4224 ****
  3 C           0.979608   -0.680613   -0.176019 C         1 UNL        0.1031 ****
  4 C          -0.144288   -1.714980    0.089920 C         1 UNL        0.0038 ****
  5 H          -0.374908   -2.151438   -0.896747 H         1 UNL        0.0229 ****
  6 C          -1.465202   -1.117295    0.589327 C         1 UNL       -0.0210 ****
  7 H          -1.303409   -0.641022    1.566599 H         1 UNL        0.0704 ****
  8 C          -1.970814   -0.051328   -0.422162 C         1 UNL        0.0271 ****
  9 H          -2.238835   -0.616384   -1.330313 H         1 UNL        0.0345 ****
 10 C           2.114127   -1.648215   -0.637622 C         1 UNL        0.0292 ****
 11 H           1.749574   -2.038442   -1.598827 H         1 UNL        0.0061 ****
 12 C           0.463194    0.285042   -1.256616 C         1 UNL       -0.0918 ****
 13 H           0.309722   -0.277662   -2.188961 H         1 UNL        0.0150 ****
 14 H           1.202455    1.065984   -1.480092 H         1 UNL        0.0150 ****
 15 C          -3.296043    0.645251    0.049663 C         1 UNL        0.0706 ****
 16 C           0.548330   -2.825975    0.903616 C         1 UNL       -0.0981 ****
 17 H           0.059844   -3.797106    0.775728 H         1 UNL        0.0290 ****
 18 H           0.519731   -2.598332    1.976461 H         1 UNL        0.0290 ****
 19 C          -0.863367    0.951158   -0.834520 C         1 UNL       -0.0720 ****
 20 H          -0.660790    1.642382   -0.010109 H         1 UNL        0.0340 ****
 21 H          -1.221885    1.570803   -1.664025 H         1 UNL        0.0340 ****
 22 C           2.018093   -2.830254    0.376713 C         1 UNL       -0.1212 ****
 23 H           2.716512   -2.700850    1.207821 H         1 UNL        0.0400 ****
 24 H           2.277252   -3.781609   -0.099538 H         1 UNL        0.0400 ****
 25 C          -2.531675   -2.209209    0.769616 C         1 UNL       -0.0674 ****
 26 H          -2.306248   -2.812200    1.659396 H         1 UNL        0.0493 ****
 27 H          -2.483872   -2.912787   -0.078259 H         1 UNL        0.0493 ****
 28 C           3.529803   -1.071891   -0.951677 C         1 UNL        0.0833 ****
 29 H           3.370938   -0.046651   -1.315955 H         1 UNL       -0.0116 ****
 30 C           1.374205    0.102720    1.095320 C         1 UNL       -0.1187 ****
 31 H           2.141857    0.847352    0.861085 H         1 UNL        0.0250 ****
 32 H           0.527564    0.641372    1.527685 H         1 UNL        0.0250 ****
 33 H           1.772448   -0.549757    1.877447 H         1 UNL        0.0250 ****
 34 C          -4.284520   -0.402017    0.582596 C         1 UNL       -0.0860 ****
 35 C          -3.952265    1.351167   -1.177972 C         1 UNL       -0.0669 ****
 36 H          -3.957922    0.642495   -2.017912 H         1 UNL        0.0145 ****
 37 H          -3.328625    2.196318   -1.488848 H         1 UNL        0.0145 ****
 38 C          -3.926057   -1.660472    0.876974 C         1 UNL       -0.2429 ****
 39 H          -4.693363   -2.352364    1.226184 H         1 UNL        0.1334 ****
 40 C          -3.028031    1.690749    1.165405 C         1 UNL       -0.0833 ****
 41 H          -2.475201    2.553776    0.781193 H         1 UNL        0.0263 ****
 42 H          -3.959972    2.070908    1.591025 H         1 UNL        0.0263 ****
 43 H          -2.453298    1.253067    1.987451 H         1 UNL        0.0263 ****
 44 C          -5.720845    0.051558    0.767167 C         1 UNL       -0.1902 ****
 45 H          -6.339794   -0.805564    1.062240 H         1 UNL        0.0805 ****
 46 H          -5.796039    0.789811    1.578129 H         1 UNL        0.0805 ****
 47 C          -5.387040    1.848200   -0.948766 C         1 UNL       -0.0586 ****
 48 H          -5.416172    2.638922   -0.188751 H         1 UNL        0.0577 ****
 49 H          -5.783596    2.285807   -1.871969 H         1 UNL        0.0577 ****
 50 C           4.498365   -1.001709    0.253289 C         1 UNL       -0.0103 ****
 51 H           4.005769   -0.504646    1.095071 H         1 UNL       -0.0043 ****
 52 H           4.710034   -2.024212    0.592699 H         1 UNL       -0.0043 ****
 53 C          -6.293460    0.711313   -0.495633 C         1 UNL        0.2925 ****
 54 H          -6.350616   -0.042271   -1.298498 H         1 UNL        0.0149 ****
 55 C           4.162887   -1.866733   -2.112659 C         1 UNL       -0.1210 ****
 56 H           4.345842   -2.908865   -1.821071 H         1 UNL        0.0239 ****
 57 H           5.118750   -1.440725   -2.431857 H         1 UNL        0.0239 ****
 58 H           3.502216   -1.877230   -2.986436 H         1 UNL        0.0239 ****
 59 C           5.859560   -0.318870   -0.004876 C         1 UNL        0.0066 ****
 60 H           6.448628   -0.389962    0.918421 H         1 UNL        0.0022 ****
 61 H           6.421822   -0.897544   -0.747816 H         1 UNL        0.0022 ****
 62 C           5.824035    1.148141   -0.472528 C         1 UNL       -0.0650 ****
 63 H           5.293464    1.211236   -1.432249 H         1 UNL        0.0039 ****
 64 H           6.856385    1.464640   -0.683662 H         1 UNL        0.0039 ****
 65 C           5.200056    2.172426    0.498666 C         1 UNL        0.2607 ****
 66 H           4.168035    1.860609    0.712842 H         1 UNL       -0.0405 ****
 67 C           5.134156    3.558753   -0.162260 C         1 UNL       -0.2078 ****
 68 H           4.564948    3.529026   -1.098549 H         1 UNL        0.0404 ****
 69 H           4.657364    4.292857    0.497272 H         1 UNL        0.0404 ****
 70 H           6.140940    3.927572   -0.397050 H         1 UNL        0.0404 ****
 71 C           5.952971    2.249554    1.836503 C         1 UNL       -0.2078 ****
 72 H           5.945789    1.294384    2.371275 H         1 UNL        0.0404 ****
 73 H           5.501803    2.999314    2.496346 H         1 UNL        0.0404 ****
 74 H           7.000944    2.535172    1.676965 H         1 UNL        0.0404 ****
@<TRIPOS>BOND
    1     1     2 1
    2     1    53 1
    3     3     4 1
    4     3    10 1
    5     3    12 1
    6     3    30 1
    7     4     5 1
    8     4     6 1
    9     4    16 1
   10     6     7 1
   11     6     8 1
   12     6    25 1
   13     8     9 1
   14     8    15 1
   15     8    19 1
   16    10    11 1
   17    10    22 1
   18    10    28 1
   19    12    13 1
   20    12    14 1
   21    12    19 1
   22    15    34 1
   23    15    35 1
   24    15    40 1
   25    16    17 1
   26    16    18 1
   27    16    22 1
   28    19    20 1
   29    19    21 1
   30    22    23 1
   31    22    24 1
   32    25    26 1
   33    25    27 1
   34    25    38 1
   35    28    29 1
   36    28    50 1
   37    28    55 1
   38    30    31 1
   39    30    32 1
   40    30    33 1
   41    34    38 1
   42    34    44 1
   43    35    36 1
   44    35    37 1
   45    35    47 1
   46    38    39 1
   47    40    41 1
   48    40    42 1
   49    40    43 1
   50    44    45 1
   51    44    46 1
   52    44    53 1
   53    47    48 1
   54    47    49 1
   55    47    53 1
   56    50    51 1
   57    50    52 1
   58    50    59 1
   59    53    54 1
   60    55    56 1
   61    55    57 1
   62    55    58 1
   63    59    60 1
   64    59    61 1
   65    59    62 1
   66    62    63 1
   67    62    64 1
   68    62    65 1
   69    65    66 1
   70    65    67 1
   71    65    71 1
   72    67    68 1
   73    67    69 1
   74    67    70 1
   75    71    72 1
   76    71    73 1
   77    71    74 1
@<TRIPOS>SUBSTRUCTURE
      1  UNL              1 ****               0 ****  ****  


