@<TRIPOS>MOLECULE
UNL
   74    77     1     0     1
SMALL
USER_CHARGES
@<TRIPOS>ATOM
  1 O           8.258120   -0.434448   -0.530719 O         1 UNL       -0.7110 ****
  2 H           8.690388    0.402343   -0.747197 H         1 UNL        0.4224 ****
  3 C          -0.513887   -0.133903    0.275587 C         1 UNL        0.1031 ****
  4 C           0.370719    1.054836   -0.195271 C         1 UNL        0.0038 ****
  5 H           0.401085    0.971176   -1.295579 H         1 UNL        0.0229 ****
  6 C           1.834456    1.010971    0.263286 C         1 UNL       -0.0210 ****
  7 H           1.871691    1.070212    1.360350 H         1 UNL        0.0704 ****
  8 C           2.491366   -0.316453   -0.196889 C         1 UNL        0.0271 ****
  9 H           2.536064   -0.256725   -1.297070 H         1 UNL        0.0345 ****
 10 C          -1.889935    0.284007   -0.352050 C         1 UNL        0.0292 ****
 11 H          -1.801534    0.092389   -1.433422 H         1 UNL        0.0061 ****
 12 C           0.142133   -1.411818   -0.288013 C         1 UNL       -0.0918 ****
 13 H           0.086344   -1.379659   -1.385861 H         1 UNL        0.0150 ****
 14 H          -0.392192   -2.314912    0.023222 H         1 UNL        0.0150 ****
 15 C           3.979614   -0.453759    0.281594 C         1 UNL        0.0706 ****
 16 C          -0.468276    2.301622    0.120057 C         1 UNL       -0.0981 ****
 17 H          -0.191641    3.160597   -0.499392 H         1 UNL        0.0290 ****
 18 H          -0.329733    2.607868    1.164408 H         1 UNL        0.0290 ****
 19 C           1.616178   -1.543408    0.148126 C         1 UNL       -0.0720 ****
 20 H           1.644597   -1.728839    1.227143 H         1 UNL        0.0340 ****
 21 H           2.036368   -2.440045   -0.321442 H         1 UNL        0.0340 ****
 22 C          -1.927555    1.836750   -0.138641 C         1 UNL       -0.1212 ****
 23 H          -2.574484    2.089689    0.709934 H         1 UNL        0.0400 ****
 24 H          -2.353336    2.341158   -1.011134 H         1 UNL        0.0400 ****
 25 C           2.622314    2.205455   -0.298707 C         1 UNL       -0.0674 ****
 26 H           2.339427    3.125964    0.229081 H         1 UNL        0.0493 ****
 27 H           2.334856    2.373089   -1.350127 H         1 UNL        0.0493 ****
 28 C          -3.193594   -0.412671    0.118462 C         1 UNL        0.0833 ****
 29 H          -3.333341   -0.177446    1.184776 H         1 UNL       -0.0116 ****
 30 C          -0.629688   -0.211238    1.815433 C         1 UNL       -0.1187 ****
 31 H          -1.212173   -1.088512    2.115640 H         1 UNL        0.0250 ****
 32 H           0.345544   -0.289974    2.302061 H         1 UNL        0.0250 ****
 33 H          -1.128858    0.668182    2.233640 H         1 UNL        0.0250 ****
 34 C           4.732721    0.864408    0.053500 C         1 UNL       -0.0860 ****
 35 C           4.674794   -1.563259   -0.567684 C         1 UNL       -0.0669 ****
 36 H           4.438867   -1.382826   -1.625737 H         1 UNL        0.0145 ****
 37 H           4.244511   -2.538570   -0.315519 H         1 UNL        0.0145 ****
 38 C           4.111261    2.021474   -0.218149 C         1 UNL       -0.2429 ****
 39 H           4.718691    2.910164   -0.393502 H         1 UNL        0.1334 ****
 40 C           4.065478   -0.823752    1.786654 C         1 UNL       -0.0833 ****
 41 H           3.700732   -1.839288    1.970237 H         1 UNL        0.0263 ****
 42 H           5.094489   -0.781422    2.152128 H         1 UNL        0.0263 ****
 43 H           3.477466   -0.131993    2.397769 H         1 UNL        0.0263 ****
 44 C           6.246129    0.807116    0.148146 C         1 UNL       -0.1902 ****
 45 H           6.666885    1.783920   -0.123336 H         1 UNL        0.0805 ****
 46 H           6.565050    0.601245    1.179741 H         1 UNL        0.0805 ****
 47 C           6.200933   -1.635928   -0.413526 C         1 UNL       -0.0586 ****
 48 H           6.483520   -1.920206    0.607787 H         1 UNL        0.0577 ****
 49 H           6.608126   -2.406799   -1.077622 H         1 UNL        0.0577 ****
 50 C          -4.413964    0.167124   -0.639515 C         1 UNL       -0.0103 ****
 51 H          -4.361380    1.261735   -0.627364 H         1 UNL       -0.0043 ****
 52 H          -4.344634   -0.127985   -1.698008 H         1 UNL       -0.0043 ****
 53 C           6.846853   -0.294932   -0.736476 C         1 UNL        0.2925 ****
 54 H           6.652895   -0.050150   -1.793942 H         1 UNL        0.0149 ****
 55 C          -3.150660   -1.943935   -0.028511 C         1 UNL       -0.1210 ****
 56 H          -2.928616   -2.231954   -1.063874 H         1 UNL        0.0239 ****
 57 H          -4.109950   -2.394982    0.241913 H         1 UNL        0.0239 ****
 58 H          -2.393486   -2.399418    0.613316 H         1 UNL        0.0239 ****
 59 C          -5.790840   -0.239443   -0.088193 C         1 UNL        0.0066 ****
 60 H          -5.923977   -1.324295   -0.166375 H         1 UNL        0.0022 ****
 61 H          -5.827218    0.001385    0.983062 H         1 UNL        0.0022 ****
 62 C          -6.940630    0.470304   -0.821931 C         1 UNL       -0.0650 ****
 63 H          -6.860633    0.248820   -1.896166 H         1 UNL        0.0039 ****
 64 H          -6.800944    1.556863   -0.726557 H         1 UNL        0.0039 ****
 65 C          -8.375729    0.123623   -0.361240 C         1 UNL        0.2607 ****
 66 H          -9.047361    0.728946   -0.987984 H         1 UNL       -0.0405 ****
 67 C          -8.641150    0.522011    1.100041 C         1 UNL       -0.2078 ****
 68 H          -8.391772    1.574687    1.278531 H         1 UNL        0.0404 ****
 69 H          -9.697250    0.381066    1.356990 H         1 UNL        0.0404 ****
 70 H          -8.051713   -0.084151    1.797610 H         1 UNL        0.0404 ****
 71 C          -8.738530   -1.350542   -0.606303 C         1 UNL       -0.2078 ****
 72 H          -8.557936   -1.638112   -1.648785 H         1 UNL        0.0404 ****
 73 H          -9.797180   -1.532548   -0.388588 H         1 UNL        0.0404 ****
 74 H          -8.154277   -2.023081    0.032292 H         1 UNL        0.0404 ****
@<TRIPOS>BOND
    1     1     2 1
    2     1    53 1
    3     3     4 1
    4     3    10 1
    5     3    12 1
    6     3    30 1
    7     4     5 1
    8     4     6 1
    9     4    16 1
   10     6     7 1
   11     6     8 1
   12     6    25 1
   13     8     9 1
   14     8    15 1
   15     8    19 1
   16    10    11 1
   17    10    22 1
   18    10    28 1
   19    12    13 1
   20    12    14 1
   21    12    19 1
   22    15    34 1
   23    15    35 1
   24    15    40 1
   25    16    17 1
   26    16    18 1
   27    16    22 1
   28    19    20 1
   29    19    21 1
   30    22    23 1
   31    22    24 1
   32    25    26 1
   33    25    27 1
   34    25    38 1
   35    28    29 1
   36    28    50 1
   37    28    55 1
   38    30    31 1
   39    30    32 1
   40    30    33 1
   41    34    38 1
   42    34    44 1
   43    35    36 1
   44    35    37 1
   45    35    47 1
   46    38    39 1
   47    40    41 1
   48    40    42 1
   49    40    43 1
   50    44    45 1
   51    44    46 1
   52    44    53 1
   53    47    48 1
   54    47    49 1
   55    47    53 1
   56    50    51 1
   57    50    52 1
   58    50    59 1
   59    53    54 1
   60    55    56 1
   61    55    57 1
   62    55    58 1
   63    59    60 1
   64    59    61 1
   65    59    62 1
   66    62    63 1
   67    62    64 1
   68    62    65 1
   69    65    66 1
   70    65    67 1
   71    65    71 1
   72    67    68 1
   73    67    69 1
   74    67    70 1
   75    71    72 1
   76    71    73 1
   77    71    74 1
@<TRIPOS>SUBSTRUCTURE
      1  UNL              1 ****               0 ****  ****  


