@<TRIPOS>MOLECULE
UNL
   74    77     1     0     1
SMALL
USER_CHARGES
@<TRIPOS>ATOM
  1 O           7.760184   -1.287531   -0.935143 O         1 UNL       -0.7110 ****
  2 H           8.214155   -0.656164   -1.508932 H         1 UNL        0.4224 ****
  3 C          -0.703519    0.466771    0.775858 C         1 UNL        0.1031 ****
  4 C           0.177435    1.269645   -0.222227 C         1 UNL        0.0038 ****
  5 H           0.017157    0.783320   -1.200007 H         1 UNL        0.0229 ****
  6 C           1.689075    1.200025    0.030502 C         1 UNL       -0.0210 ****
  7 H           1.913438    1.653419    1.006502 H         1 UNL        0.0704 ****
  8 C           2.155004   -0.279562    0.037009 C         1 UNL        0.0271 ****
  9 H           2.022121   -0.633997   -0.998683 H         1 UNL        0.0345 ****
 10 C          -2.126393    0.811396    0.213059 C         1 UNL        0.0292 ****
 11 H          -2.216846    0.246869   -0.727134 H         1 UNL        0.0061 ****
 12 C          -0.255081   -1.005128    0.666227 C         1 UNL       -0.0918 ****
 13 H          -0.491610   -1.370511   -0.343714 H         1 UNL        0.0150 ****
 14 H          -0.799694   -1.648010    1.365223 H         1 UNL        0.0150 ****
 15 C           3.686553   -0.429918    0.343904 C         1 UNL        0.0706 ****
 16 C          -0.498139    2.647408   -0.308216 C         1 UNL       -0.0981 ****
 17 H          -0.281181    3.159878   -1.250784 H         1 UNL        0.0290 ****
 18 H          -0.144090    3.303994    0.496303 H         1 UNL        0.0290 ****
 19 C           1.256546   -1.166186    0.930310 C         1 UNL       -0.0720 ****
 20 H           1.450247   -0.947859    1.985787 H         1 UNL        0.0340 ****
 21 H           1.521700   -2.220035    0.788600 H         1 UNL        0.0340 ****
 22 C          -2.010852    2.330008   -0.144724 C         1 UNL       -0.1212 ****
 23 H          -2.449891    2.941911    0.652027 H         1 UNL        0.0400 ****
 24 H          -2.572772    2.563326   -1.054493 H         1 UNL        0.0400 ****
 25 C           2.462480    1.985119   -1.041275 C         1 UNL       -0.0674 ****
 26 H           2.343004    3.064486   -0.878115 H         1 UNL        0.0493 ****
 27 H           2.018273    1.789718   -2.031583 H         1 UNL        0.0493 ****
 28 C          -3.381757    0.495126    1.063026 C         1 UNL        0.0833 ****
 29 H          -3.292078    1.070016    1.996810 H         1 UNL       -0.0116 ****
 30 C          -0.563588    0.971650    2.230354 C         1 UNL       -0.1187 ****
 31 H          -1.157375    0.353424    2.912152 H         1 UNL        0.0250 ****
 32 H           0.469743    0.938758    2.584267 H         1 UNL        0.0250 ****
 33 H          -0.909595    2.003714    2.342158 H         1 UNL        0.0250 ****
 34 C           4.491473    0.596987   -0.465191 C         1 UNL       -0.0860 ****
 35 C           4.143725   -1.857163   -0.091159 C         1 UNL       -0.0669 ****
 36 H           3.750657   -2.050200   -1.099121 H         1 UNL        0.0145 ****
 37 H           3.686931   -2.603103    0.568303 H         1 UNL        0.0145 ****
 38 C           3.925346    1.645060   -1.081529 C         1 UNL       -0.2429 ****
 39 H           4.562376    2.316004   -1.659016 H         1 UNL        0.1334 ****
 40 C           3.990996   -0.226063    1.852370 C         1 UNL       -0.0833 ****
 41 H           3.585595   -1.043869    2.456441 H         1 UNL        0.0263 ****
 42 H           5.066374   -0.188885    2.043294 H         1 UNL        0.0263 ****
 43 H           3.566002    0.713933    2.217724 H         1 UNL        0.0263 ****
 44 C           5.990548    0.375516   -0.544110 C         1 UNL       -0.1902 ****
 45 H           6.434684    1.116822   -1.220922 H         1 UNL        0.0805 ****
 46 H           6.459232    0.524320    0.438993 H         1 UNL        0.0805 ****
 47 C           5.664084   -2.072229   -0.110649 C         1 UNL       -0.0586 ****
 48 H           6.088794   -1.994310    0.898006 H         1 UNL        0.0577 ****
 49 H           5.894995   -3.081110   -0.471075 H         1 UNL        0.0577 ****
 50 C          -4.687873    1.027377    0.404176 C         1 UNL       -0.0103 ****
 51 H          -5.520670    0.794162    1.080766 H         1 UNL       -0.0043 ****
 52 H          -4.628462    2.122210    0.390406 H         1 UNL       -0.0043 ****
 53 C           6.349432   -1.045350   -1.002607 C         1 UNL        0.2925 ****
 54 H           6.002663   -1.184766   -2.039951 H         1 UNL        0.0149 ****
 55 C          -3.495901   -0.986976    1.468973 C         1 UNL       -0.1210 ****
 56 H          -3.369735   -1.661162    0.615982 H         1 UNL        0.0239 ****
 57 H          -4.476550   -1.191278    1.913108 H         1 UNL        0.0239 ****
 58 H          -2.742367   -1.258963    2.213022 H         1 UNL        0.0239 ****
 59 C          -5.051369    0.579644   -1.029946 C         1 UNL        0.0066 ****
 60 H          -5.796358    1.289419   -1.412155 H         1 UNL        0.0022 ****
 61 H          -4.178824    0.705487   -1.683307 H         1 UNL        0.0022 ****
 62 C          -5.596797   -0.848613   -1.234081 C         1 UNL       -0.0650 ****
 63 H          -4.825757   -1.582797   -0.973423 H         1 UNL        0.0039 ****
 64 H          -5.783588   -0.983664   -2.310284 H         1 UNL        0.0039 ****
 65 C          -6.893176   -1.214071   -0.480072 C         1 UNL        0.2607 ****
 66 H          -6.711830   -1.097003    0.597729 H         1 UNL       -0.0405 ****
 67 C          -7.250445   -2.688717   -0.727222 C         1 UNL       -0.2078 ****
 68 H          -6.433561   -3.354041   -0.424894 H         1 UNL        0.0404 ****
 69 H          -8.146024   -2.980916   -0.167024 H         1 UNL        0.0404 ****
 70 H          -7.450377   -2.869560   -1.791271 H         1 UNL        0.0404 ****
 71 C          -8.072302   -0.303730   -0.859043 C         1 UNL       -0.2078 ****
 72 H          -7.881329    0.745411   -0.611559 H         1 UNL        0.0404 ****
 73 H          -8.984211   -0.605446   -0.331274 H         1 UNL        0.0404 ****
 74 H          -8.277873   -0.360852   -1.936037 H         1 UNL        0.0404 ****
@<TRIPOS>BOND
    1     1     2 1
    2     1    53 1
    3     3     4 1
    4     3    10 1
    5     3    12 1
    6     3    30 1
    7     4     5 1
    8     4     6 1
    9     4    16 1
   10     6     7 1
   11     6     8 1
   12     6    25 1
   13     8     9 1
   14     8    15 1
   15     8    19 1
   16    10    11 1
   17    10    22 1
   18    10    28 1
   19    12    13 1
   20    12    14 1
   21    12    19 1
   22    15    34 1
   23    15    35 1
   24    15    40 1
   25    16    17 1
   26    16    18 1
   27    16    22 1
   28    19    20 1
   29    19    21 1
   30    22    23 1
   31    22    24 1
   32    25    26 1
   33    25    27 1
   34    25    38 1
   35    28    29 1
   36    28    50 1
   37    28    55 1
   38    30    31 1
   39    30    32 1
   40    30    33 1
   41    34    38 1
   42    34    44 1
   43    35    36 1
   44    35    37 1
   45    35    47 1
   46    38    39 1
   47    40    41 1
   48    40    42 1
   49    40    43 1
   50    44    45 1
   51    44    46 1
   52    44    53 1
   53    47    48 1
   54    47    49 1
   55    47    53 1
   56    50    51 1
   57    50    52 1
   58    50    59 1
   59    53    54 1
   60    55    56 1
   61    55    57 1
   62    55    58 1
   63    59    60 1
   64    59    61 1
   65    59    62 1
   66    62    63 1
   67    62    64 1
   68    62    65 1
   69    65    66 1
   70    65    67 1
   71    65    71 1
   72    67    68 1
   73    67    69 1
   74    67    70 1
   75    71    72 1
   76    71    73 1
   77    71    74 1
@<TRIPOS>SUBSTRUCTURE
      1  UNL              1 ****               0 ****  ****  


