@<TRIPOS>MOLECULE
UNL
   74    77     1     0     1
SMALL
USER_CHARGES
@<TRIPOS>ATOM
  1 O          -8.258120    0.434451   -0.530716 O         1 UNL       -0.7110 ****
  2 H          -8.690390   -0.402340   -0.747192 H         1 UNL        0.4224 ****
  3 C           0.513887    0.133900    0.275589 C         1 UNL        0.1031 ****
  4 C          -0.370719   -1.054838   -0.195271 C         1 UNL        0.0038 ****
  5 H          -0.401084   -0.971176   -1.295579 H         1 UNL        0.0229 ****
  6 C          -1.834457   -1.010972    0.263284 C         1 UNL       -0.0210 ****
  7 H          -1.871694   -1.070215    1.360348 H         1 UNL        0.0704 ****
  8 C          -2.491365    0.316453   -0.196890 C         1 UNL        0.0271 ****
  9 H          -2.536062    0.256726   -1.297071 H         1 UNL        0.0345 ****
 10 C           1.889935   -0.284012   -0.352047 C         1 UNL        0.0292 ****
 11 H           1.801535   -0.092393   -1.433418 H         1 UNL        0.0061 ****
 12 C          -0.142132    1.411816   -0.288012 C         1 UNL       -0.0918 ****
 13 H          -0.086341    1.379657   -1.385860 H         1 UNL        0.0150 ****
 14 H           0.392194    2.314909    0.023224 H         1 UNL        0.0150 ****
 15 C          -3.979613    0.453761    0.281592 C         1 UNL        0.0706 ****
 16 C           0.468274   -2.301625    0.120057 C         1 UNL       -0.0981 ****
 17 H           0.191639   -3.160598   -0.499395 H         1 UNL        0.0290 ****
 18 H           0.329729   -2.607873    1.164406 H         1 UNL        0.0290 ****
 19 C          -1.616177    1.543408    0.148126 C         1 UNL       -0.0720 ****
 20 H          -1.644596    1.728838    1.227143 H         1 UNL        0.0340 ****
 21 H          -2.036365    2.440045   -0.321442 H         1 UNL        0.0340 ****
 22 C           1.927554   -1.836753   -0.138638 C         1 UNL       -0.1212 ****
 23 H           2.574481   -2.089692    0.709939 H         1 UNL        0.0400 ****
 24 H           2.353338   -2.341162   -1.011128 H         1 UNL        0.0400 ****
 25 C          -2.622316   -2.205453   -0.298713 C         1 UNL       -0.0674 ****
 26 H          -2.339427   -3.125965    0.229068 H         1 UNL        0.0493 ****
 27 H          -2.334860   -2.373080   -1.350136 H         1 UNL        0.0493 ****
 28 C           3.193594    0.412666    0.118467 C         1 UNL        0.0833 ****
 29 H           3.333339    0.177441    1.184781 H         1 UNL       -0.0116 ****
 30 C           0.629686    0.211234    1.815435 C         1 UNL       -0.1187 ****
 31 H           1.212171    1.088507    2.115644 H         1 UNL        0.0250 ****
 32 H          -0.345547    0.289971    2.302062 H         1 UNL        0.0250 ****
 33 H           1.128854   -0.668187    2.233642 H         1 UNL        0.0250 ****
 34 C          -4.732722   -0.864406    0.053501 C         1 UNL       -0.0860 ****
 35 C          -4.674793    1.563260   -0.567688 C         1 UNL       -0.0669 ****
 36 H          -4.438867    1.382823   -1.625741 H         1 UNL        0.0145 ****
 37 H          -4.244510    2.538571   -0.315527 H         1 UNL        0.0145 ****
 38 C          -4.111263   -2.021473   -0.218150 C         1 UNL       -0.2429 ****
 39 H          -4.718694   -2.910162   -0.393499 H         1 UNL        0.1334 ****
 40 C          -4.065478    0.823757    1.786651 C         1 UNL       -0.0833 ****
 41 H          -3.700733    1.839293    1.970233 H         1 UNL        0.0263 ****
 42 H          -5.094488    0.781425    2.152127 H         1 UNL        0.0263 ****
 43 H          -3.477464    0.132000    2.397767 H         1 UNL        0.0263 ****
 44 C          -6.246130   -0.807113    0.148148 C         1 UNL       -0.1902 ****
 45 H          -6.666886   -1.783918   -0.123331 H         1 UNL        0.0805 ****
 46 H          -6.565049   -0.601240    1.179743 H         1 UNL        0.0805 ****
 47 C          -6.200932    1.635929   -0.413530 C         1 UNL       -0.0586 ****
 48 H          -6.483518    1.920211    0.607783 H         1 UNL        0.0577 ****
 49 H          -6.608125    2.406799   -1.077628 H         1 UNL        0.0577 ****
 50 C           4.413964   -0.167132   -0.639508 C         1 UNL       -0.0103 ****
 51 H           4.361384   -1.261742   -0.627347 H         1 UNL       -0.0043 ****
 52 H           4.344631    0.127968   -1.698004 H         1 UNL       -0.0043 ****
 53 C          -6.846854    0.294934   -0.736476 C         1 UNL        0.2925 ****
 54 H          -6.652898    0.050149   -1.793941 H         1 UNL        0.0149 ****
 55 C           3.150662    1.943929   -0.028508 C         1 UNL       -0.1210 ****
 56 H           2.928620    2.231949   -1.063871 H         1 UNL        0.0239 ****
 57 H           4.109952    2.394976    0.241918 H         1 UNL        0.0239 ****
 58 H           2.393488    2.399414    0.613317 H         1 UNL        0.0239 ****
 59 C           5.790841    0.239445   -0.088194 C         1 UNL        0.0066 ****
 60 H           5.923978    1.324295   -0.166396 H         1 UNL        0.0022 ****
 61 H           5.827218   -0.001363    0.983066 H         1 UNL        0.0022 ****
 62 C           6.940630   -0.470317   -0.821917 C         1 UNL       -0.0650 ****
 63 H           6.860631   -0.248857   -1.896157 H         1 UNL        0.0039 ****
 64 H           6.800945   -1.556874   -0.726520 H         1 UNL        0.0039 ****
 65 C           8.375730   -0.123624   -0.361238 C         1 UNL        0.2607 ****
 66 H           9.047360   -0.728963   -0.987968 H         1 UNL       -0.0405 ****
 67 C           8.641153   -0.521977    1.100053 C         1 UNL       -0.2078 ****
 68 H           8.391775   -1.574648    1.278569 H         1 UNL        0.0404 ****
 69 H           9.697253   -0.381024    1.356997 H         1 UNL        0.0404 ****
 70 H           8.051717    0.084203    1.797608 H         1 UNL        0.0404 ****
 71 C           8.738529    1.350535   -0.606338 C         1 UNL       -0.2078 ****
 72 H           8.557934    1.638078   -1.648827 H         1 UNL        0.0404 ****
 73 H           9.797180    1.532547   -0.388629 H         1 UNL        0.0404 ****
 74 H           8.154276    2.023089    0.032242 H         1 UNL        0.0404 ****
@<TRIPOS>BOND
    1     1     2 1
    2     1    53 1
    3     3     4 1
    4     3    10 1
    5     3    12 1
    6     3    30 1
    7     4     5 1
    8     4     6 1
    9     4    16 1
   10     6     7 1
   11     6     8 1
   12     6    25 1
   13     8     9 1
   14     8    15 1
   15     8    19 1
   16    10    11 1
   17    10    22 1
   18    10    28 1
   19    12    13 1
   20    12    14 1
   21    12    19 1
   22    15    34 1
   23    15    35 1
   24    15    40 1
   25    16    17 1
   26    16    18 1
   27    16    22 1
   28    19    20 1
   29    19    21 1
   30    22    23 1
   31    22    24 1
   32    25    26 1
   33    25    27 1
   34    25    38 1
   35    28    29 1
   36    28    50 1
   37    28    55 1
   38    30    31 1
   39    30    32 1
   40    30    33 1
   41    34    38 1
   42    34    44 1
   43    35    36 1
   44    35    37 1
   45    35    47 1
   46    38    39 1
   47    40    41 1
   48    40    42 1
   49    40    43 1
   50    44    45 1
   51    44    46 1
   52    44    53 1
   53    47    48 1
   54    47    49 1
   55    47    53 1
   56    50    51 1
   57    50    52 1
   58    50    59 1
   59    53    54 1
   60    55    56 1
   61    55    57 1
   62    55    58 1
   63    59    60 1
   64    59    61 1
   65    59    62 1
   66    62    63 1
   67    62    64 1
   68    62    65 1
   69    65    66 1
   70    65    67 1
   71    65    71 1
   72    67    68 1
   73    67    69 1
   74    67    70 1
   75    71    72 1
   76    71    73 1
   77    71    74 1
@<TRIPOS>SUBSTRUCTURE
      1  UNL              1 ****               0 ****  ****  


