@<TRIPOS>MOLECULE
UNL
   74    77     1     0     1
SMALL
USER_CHARGES
@<TRIPOS>ATOM
  1 O          -8.173699    0.548088    0.004282 O         1 UNL       -0.7110 ****
  2 H          -8.643748   -0.293689   -0.062104 H         1 UNL        0.4224 ****
  3 C           0.624396    0.057137   -0.136768 C         1 UNL        0.1031 ****
  4 C          -0.329836   -1.149576   -0.360008 C         1 UNL        0.0038 ****
  5 H          -0.483715   -1.195911   -1.452168 H         1 UNL        0.0229 ****
  6 C          -1.730706   -1.004481    0.249218 C         1 UNL       -0.0210 ****
  7 H          -1.644100   -0.934905    1.342870 H         1 UNL        0.0704 ****
  8 C          -2.409546    0.281813   -0.289654 C         1 UNL        0.0271 ****
  9 H          -2.580060    0.096999   -1.363299 H         1 UNL        0.0345 ****
 10 C           1.910689   -0.473653   -0.860446 C         1 UNL        0.0292 ****
 11 H           1.704174   -0.404266   -1.940525 H         1 UNL        0.0061 ****
 12 C          -0.066166    1.282378   -0.771025 C         1 UNL       -0.0918 ****
 13 H          -0.137965    1.121526   -1.856566 H         1 UNL        0.0150 ****
 14 H           0.519673    2.196360   -0.630787 H         1 UNL        0.0150 ****
 15 C          -3.830852    0.521944    0.330807 C         1 UNL        0.0706 ****
 16 C           0.517576   -2.375938    0.009515 C         1 UNL       -0.0981 ****
 17 H           0.154568   -3.294287   -0.462663 H         1 UNL        0.0290 ****
 18 H           0.497092   -2.548496    1.092733 H         1 UNL        0.0290 ****
 19 C          -1.477359    1.511556   -0.191372 C         1 UNL       -0.0720 ****
 20 H          -1.378196    1.820501    0.854662 H         1 UNL        0.0340 ****
 21 H          -1.931716    2.361336   -0.713297 H         1 UNL        0.0340 ****
 22 C           1.944344   -1.992744   -0.470945 C         1 UNL       -0.1212 ****
 23 H           2.685314   -2.168930    0.317789 H         1 UNL        0.0400 ****
 24 H           2.249045   -2.609457   -1.321632 H         1 UNL        0.0400 ****
 25 C          -2.600560   -2.229614   -0.076079 C         1 UNL       -0.0674 ****
 26 H          -2.277436   -3.091459    0.522898 H         1 UNL        0.0493 ****
 27 H          -2.437911   -2.527388   -1.125414 H         1 UNL        0.0493 ****
 28 C           3.271811    0.227302   -0.617161 C         1 UNL        0.0833 ****
 29 H           3.518405    0.099234    0.447213 H         1 UNL       -0.0116 ****
 30 C           0.916544    0.307972    1.360924 C         1 UNL       -0.1187 ****
 31 H           1.541454    1.197727    1.489738 H         1 UNL        0.0250 ****
 32 H           0.004203    0.468729    1.940416 H         1 UNL        0.0250 ****
 33 H           1.447303   -0.530863    1.821389 H         1 UNL        0.0250 ****
 34 C          -4.630543   -0.788472    0.345577 C         1 UNL       -0.0860 ****
 35 C          -4.596567    1.547833   -0.561853 C         1 UNL       -0.0669 ****
 36 H          -4.486221    1.238523   -1.610592 H         1 UNL        0.0145 ****
 37 H          -4.121590    2.531247   -0.476553 H         1 UNL        0.0145 ****
 38 C          -4.066746   -1.988952    0.146237 C         1 UNL       -0.2429 ****
 39 H          -4.707390   -2.871588    0.145929 H         1 UNL        0.1334 ****
 40 C          -3.737700    1.066093    1.781571 C         1 UNL       -0.0833 ****
 41 H          -3.335086    2.083695    1.801968 H         1 UNL        0.0263 ****
 42 H          -4.718984    1.099553    2.261357 H         1 UNL        0.0263 ****
 43 H          -3.097249    0.430967    2.401396 H         1 UNL        0.0263 ****
 44 C          -6.122059   -0.671413    0.599323 C         1 UNL       -0.1902 ****
 45 H          -6.589647   -1.658875    0.493666 H         1 UNL        0.0805 ****
 46 H          -6.317937   -0.337413    1.628084 H         1 UNL        0.0805 ****
 47 C          -6.093585    1.687464   -0.249322 C         1 UNL       -0.0586 ****
 48 H          -6.252577    2.096705    0.756160 H         1 UNL        0.0577 ****
 49 H          -6.558680    2.389418   -0.950763 H         1 UNL        0.0577 ****
 50 C           4.405615   -0.454803   -1.443125 C         1 UNL       -0.0103 ****
 51 H           4.057066   -1.416730   -1.832950 H         1 UNL       -0.0043 ****
 52 H           4.622755    0.160482   -2.328067 H         1 UNL       -0.0043 ****
 53 C          -6.797825    0.339902   -0.337907 C         1 UNL        0.2925 ****
 54 H          -6.729759   -0.031596   -1.373819 H         1 UNL        0.0149 ****
 55 C           3.242753    1.737787   -0.916576 C         1 UNL       -0.1210 ****
 56 H           2.871253    1.925867   -1.931580 H         1 UNL        0.0239 ****
 57 H           4.247287    2.166368   -0.851588 H         1 UNL        0.0239 ****
 58 H           2.607043    2.291028   -0.220687 H         1 UNL        0.0239 ****
 59 C           5.716365   -0.720840   -0.677249 C         1 UNL        0.0066 ****
 60 H           5.490287   -1.366509    0.181700 H         1 UNL        0.0022 ****
 61 H           6.382900   -1.304308   -1.328879 H         1 UNL        0.0022 ****
 62 C           6.474617    0.528792   -0.204290 C         1 UNL       -0.0650 ****
 63 H           5.868737    1.084866    0.525533 H         1 UNL        0.0039 ****
 64 H           6.611796    1.200507   -1.064014 H         1 UNL        0.0039 ****
 65 C           7.858288    0.252210    0.420105 C         1 UNL        0.2607 ****
 66 H           8.437934   -0.338428   -0.306305 H         1 UNL       -0.0405 ****
 67 C           7.766983   -0.560593    1.721919 C         1 UNL       -0.2078 ****
 68 H           7.303792   -1.540010    1.566376 H         1 UNL        0.0404 ****
 69 H           8.762634   -0.730733    2.147211 H         1 UNL        0.0404 ****
 70 H           7.172728   -0.024306    2.473394 H         1 UNL        0.0404 ****
 71 C           8.613871    1.568714    0.661486 C         1 UNL       -0.2078 ****
 72 H           8.726599    2.141284   -0.266321 H         1 UNL        0.0404 ****
 73 H           9.615593    1.384346    1.066176 H         1 UNL        0.0404 ****
 74 H           8.077114    2.201264    1.380239 H         1 UNL        0.0404 ****
@<TRIPOS>BOND
    1     1     2 1
    2     1    53 1
    3     3     4 1
    4     3    10 1
    5     3    12 1
    6     3    30 1
    7     4     5 1
    8     4     6 1
    9     4    16 1
   10     6     7 1
   11     6     8 1
   12     6    25 1
   13     8     9 1
   14     8    15 1
   15     8    19 1
   16    10    11 1
   17    10    22 1
   18    10    28 1
   19    12    13 1
   20    12    14 1
   21    12    19 1
   22    15    34 1
   23    15    35 1
   24    15    40 1
   25    16    17 1
   26    16    18 1
   27    16    22 1
   28    19    20 1
   29    19    21 1
   30    22    23 1
   31    22    24 1
   32    25    26 1
   33    25    27 1
   34    25    38 1
   35    28    29 1
   36    28    50 1
   37    28    55 1
   38    30    31 1
   39    30    32 1
   40    30    33 1
   41    34    38 1
   42    34    44 1
   43    35    36 1
   44    35    37 1
   45    35    47 1
   46    38    39 1
   47    40    41 1
   48    40    42 1
   49    40    43 1
   50    44    45 1
   51    44    46 1
   52    44    53 1
   53    47    48 1
   54    47    49 1
   55    47    53 1
   56    50    51 1
   57    50    52 1
   58    50    59 1
   59    53    54 1
   60    55    56 1
   61    55    57 1
   62    55    58 1
   63    59    60 1
   64    59    61 1
   65    59    62 1
   66    62    63 1
   67    62    64 1
   68    62    65 1
   69    65    66 1
   70    65    67 1
   71    65    71 1
   72    67    68 1
   73    67    69 1
   74    67    70 1
   75    71    72 1
   76    71    73 1
   77    71    74 1
@<TRIPOS>SUBSTRUCTURE
      1  UNL              1 ****               0 ****  ****  


