@<TRIPOS>MOLECULE
UNL
   74    77     1     0     1
SMALL
USER_CHARGES
@<TRIPOS>ATOM
  1 O           8.077613   -0.011312   -0.030590 O         1 UNL       -0.7110 ****
  2 H           8.462506    0.831086   -0.306576 H         1 UNL        0.4224 ****
  3 C          -0.728226   -0.400182   -0.039035 C         1 UNL        0.1031 ****
  4 C           0.104004    0.801471   -0.569252 C         1 UNL        0.0038 ****
  5 H           0.249797    0.596717   -1.644123 H         1 UNL        0.0229 ****
  6 C           1.514079    0.939463    0.020111 C         1 UNL       -0.0210 ****
  7 H           1.437765    1.123324    1.101241 H         1 UNL        0.0704 ****
  8 C           2.314210   -0.367494   -0.218379 C         1 UNL        0.0271 ****
  9 H           2.460855   -0.427647   -1.309606 H         1 UNL        0.0345 ****
 10 C          -2.063063   -0.178592   -0.833555 C         1 UNL        0.0292 ****
 11 H          -1.851633   -0.479857   -1.872074 H         1 UNL        0.0061 ****
 12 C           0.077505   -1.670353   -0.383837 C         1 UNL       -0.0918 ****
 13 H           0.127081   -1.767965   -1.478105 H         1 UNL        0.0150 ****
 14 H          -0.412503   -2.576382   -0.013751 H         1 UNL        0.0150 ****
 15 C           3.754960   -0.318659    0.401427 C         1 UNL        0.0706 ****
 16 C          -0.855688    1.997084   -0.483936 C         1 UNL       -0.0981 ****
 17 H          -0.586982    2.800235   -1.177358 H         1 UNL        0.0290 ****
 18 H          -0.843802    2.432420    0.523048 H         1 UNL        0.0290 ****
 19 C           1.507415   -1.620537    0.193267 C         1 UNL       -0.0720 ****
 20 H           1.444279   -1.679656    1.285064 H         1 UNL        0.0340 ****
 21 H           2.040061   -2.523595   -0.125731 H         1 UNL        0.0340 ****
 22 C          -2.242486    1.378448   -0.810504 C         1 UNL       -0.1212 ****
 23 H          -2.984383    1.665415   -0.055748 H         1 UNL        0.0400 ****
 24 H          -2.622438    1.742727   -1.769622 H         1 UNL        0.0400 ****
 25 C           2.257889    2.129321   -0.607835 C         1 UNL       -0.0674 ****
 26 H           1.854182    3.073977   -0.219790 H         1 UNL        0.0493 ****
 27 H           2.062290    2.153498   -1.692896 H         1 UNL        0.0493 ****
 28 C          -3.350685   -0.931212   -0.405686 C         1 UNL        0.0833 ****
 29 H          -3.608070   -0.594846    0.608931 H         1 UNL       -0.0116 ****
 30 C          -0.989985   -0.313992    1.482213 C         1 UNL       -0.1187 ****
 31 H          -1.532425   -1.198817    1.831500 H         1 UNL        0.0250 ****
 32 H          -0.064737   -0.254208    2.060588 H         1 UNL        0.0250 ****
 33 H          -1.592089    0.560958    1.745704 H         1 UNL        0.0250 ****
 34 C           4.421820    1.027387    0.084739 C         1 UNL       -0.0860 ****
 35 C           4.613465   -1.449827   -0.245852 C         1 UNL       -0.0669 ****
 36 H           4.467903   -1.409765   -1.334384 H         1 UNL        0.0145 ****
 37 H           4.237933   -2.425306    0.081884 H         1 UNL        0.0145 ****
 38 C           3.741651    2.087668   -0.375673 C         1 UNL       -0.2429 ****
 39 H           4.292358    3.001534   -0.601588 H         1 UNL        0.1334 ****
 40 C           3.722890   -0.509510    1.941575 C         1 UNL       -0.0833 ****
 41 H           3.423964   -1.526954    2.212718 H         1 UNL        0.0263 ****
 42 H           4.704726   -0.333972    2.388168 H         1 UNL        0.0263 ****
 43 H           3.025086    0.190201    2.411874 H         1 UNL        0.0263 ****
 44 C           5.918823    1.115248    0.316990 C         1 UNL       -0.1902 ****
 45 H           6.286470    2.089095   -0.031329 H         1 UNL        0.0805 ****
 46 H           6.151522    1.054778    1.389598 H         1 UNL        0.0805 ****
 47 C           6.118466   -1.369502    0.048575 C         1 UNL       -0.0586 ****
 48 H           6.321910   -1.512155    1.117222 H         1 UNL        0.0577 ****
 49 H           6.646858   -2.170492   -0.480849 H         1 UNL        0.0577 ****
 50 C          -4.520691   -0.541501   -1.345480 C         1 UNL       -0.0103 ****
 51 H          -4.600189    0.549973   -1.385882 H         1 UNL       -0.0043 ****
 52 H          -4.259634   -0.859321   -2.366070 H         1 UNL       -0.0043 ****
 53 C           6.686452   -0.020990   -0.374127 C         1 UNL        0.2925 ****
 54 H           6.577692    0.086310   -1.466109 H         1 UNL        0.0149 ****
 55 C          -3.177702   -2.459230   -0.367931 C         1 UNL       -0.1210 ****
 56 H          -2.849322   -2.842218   -1.342523 H         1 UNL        0.0239 ****
 57 H          -4.117703   -2.959442   -0.116504 H         1 UNL        0.0239 ****
 58 H          -2.443279   -2.771768    0.377291 H         1 UNL        0.0239 ****
 59 C          -5.909882   -1.118157   -1.005704 C         1 UNL        0.0066 ****
 60 H          -6.612788   -0.772934   -1.774665 H         1 UNL        0.0022 ****
 61 H          -5.894016   -2.210610   -1.102139 H         1 UNL        0.0022 ****
 62 C          -6.465756   -0.767904    0.387740 C         1 UNL       -0.0650 ****
 63 H          -5.813918   -1.203189    1.157380 H         1 UNL        0.0039 ****
 64 H          -7.439011   -1.267135    0.505597 H         1 UNL        0.0039 ****
 65 C          -6.653607    0.731745    0.700984 C         1 UNL        0.2607 ****
 66 H          -5.679510    1.230752    0.594913 H         1 UNL       -0.0405 ****
 67 C          -7.108850    0.916822    2.157540 C         1 UNL       -0.2078 ****
 68 H          -6.395931    0.468803    2.859371 H         1 UNL        0.0404 ****
 69 H          -7.208515    1.978161    2.412285 H         1 UNL        0.0404 ****
 70 H          -8.083997    0.441814    2.325580 H         1 UNL        0.0404 ****
 71 C          -7.638207    1.414522   -0.261797 C         1 UNL       -0.2078 ****
 72 H          -7.297819    1.370560   -1.301367 H         1 UNL        0.0404 ****
 73 H          -7.769250    2.471353   -0.002837 H         1 UNL        0.0404 ****
 74 H          -8.624993    0.935818   -0.213078 H         1 UNL        0.0404 ****
@<TRIPOS>BOND
    1     1     2 1
    2     1    53 1
    3     3     4 1
    4     3    10 1
    5     3    12 1
    6     3    30 1
    7     4     5 1
    8     4     6 1
    9     4    16 1
   10     6     7 1
   11     6     8 1
   12     6    25 1
   13     8     9 1
   14     8    15 1
   15     8    19 1
   16    10    11 1
   17    10    22 1
   18    10    28 1
   19    12    13 1
   20    12    14 1
   21    12    19 1
   22    15    34 1
   23    15    35 1
   24    15    40 1
   25    16    17 1
   26    16    18 1
   27    16    22 1
   28    19    20 1
   29    19    21 1
   30    22    23 1
   31    22    24 1
   32    25    26 1
   33    25    27 1
   34    25    38 1
   35    28    29 1
   36    28    50 1
   37    28    55 1
   38    30    31 1
   39    30    32 1
   40    30    33 1
   41    34    38 1
   42    34    44 1
   43    35    36 1
   44    35    37 1
   45    35    47 1
   46    38    39 1
   47    40    41 1
   48    40    42 1
   49    40    43 1
   50    44    45 1
   51    44    46 1
   52    44    53 1
   53    47    48 1
   54    47    49 1
   55    47    53 1
   56    50    51 1
   57    50    52 1
   58    50    59 1
   59    53    54 1
   60    55    56 1
   61    55    57 1
   62    55    58 1
   63    59    60 1
   64    59    61 1
   65    59    62 1
   66    62    63 1
   67    62    64 1
   68    62    65 1
   69    65    66 1
   70    65    67 1
   71    65    71 1
   72    67    68 1
   73    67    69 1
   74    67    70 1
   75    71    72 1
   76    71    73 1
   77    71    74 1
@<TRIPOS>SUBSTRUCTURE
      1  UNL              1 ****               0 ****  ****  


