@<TRIPOS>MOLECULE
UNL
   74    77     1     0     1
SMALL
USER_CHARGES
@<TRIPOS>ATOM
  1 O          -7.951026   -1.209083    0.117564 O         1 UNL       -0.7110 ****
  2 H          -8.516153   -0.497061   -0.210460 H         1 UNL        0.4224 ****
  3 C           0.673656    0.498004    0.282874 C         1 UNL        0.1031 ****
  4 C          -0.409313    1.548255   -0.072442 C         1 UNL        0.0038 ****
  5 H          -0.665830    2.033326    0.884892 H         1 UNL        0.0229 ****
  6 C          -1.725572    0.963453   -0.598658 C         1 UNL       -0.0210 ****
  7 H          -1.537660    0.438001   -1.545627 H         1 UNL        0.0704 ****
  8 C          -2.300763   -0.040604    0.438915 C         1 UNL        0.0271 ****
  9 H          -2.587667    0.573136    1.308900 H         1 UNL        0.0345 ****
 10 C           1.817155    1.452026    0.749448 C         1 UNL        0.0292 ****
 11 H           1.442509    1.875562    1.692768 H         1 UNL        0.0061 ****
 12 C           0.089241   -0.404762    1.383557 C         1 UNL       -0.0918 ****
 13 H          -0.082459    0.202831    2.283975 H         1 UNL        0.0150 ****
 14 H           0.796772   -1.194891    1.669147 H         1 UNL        0.0150 ****
 15 C          -3.626107   -0.722410   -0.053815 C         1 UNL        0.0706 ****
 16 C           0.345617    2.604906   -0.902234 C         1 UNL       -0.0981 ****
 17 H          -0.128906    3.589808   -0.848696 H         1 UNL        0.0290 ****
 18 H           0.368269    2.323910   -1.962498 H         1 UNL        0.0290 ****
 19 C          -1.239829   -1.052511    0.940916 C         1 UNL       -0.0720 ****
 20 H          -1.027731   -1.788269    0.158564 H         1 UNL        0.0340 ****
 21 H          -1.647672   -1.621246    1.784030 H         1 UNL        0.0340 ****
 22 C           1.785002    2.609479   -0.297776 C         1 UNL       -0.1212 ****
 23 H           2.528888    2.457127   -1.084782 H         1 UNL        0.0400 ****
 24 H           2.023649    3.570021    0.170620 H         1 UNL        0.0400 ****
 25 C          -2.752690    2.073625   -0.871749 C         1 UNL       -0.0674 ****
 26 H          -2.475790    2.627575   -1.778710 H         1 UNL        0.0493 ****
 27 H          -2.717310    2.815001   -0.056089 H         1 UNL        0.0493 ****
 28 C           3.205705    0.841396    1.097993 C         1 UNL        0.0833 ****
 29 H           3.014890   -0.171242    1.485462 H         1 UNL       -0.0116 ****
 30 C           1.098151   -0.354801   -0.933348 C         1 UNL       -0.1187 ****
 31 H           1.867363   -1.078531   -0.642636 H         1 UNL        0.0250 ****
 32 H           0.262891   -0.923842   -1.348613 H         1 UNL        0.0250 ****
 33 H           1.505495    0.254132   -1.745348 H         1 UNL        0.0250 ****
 34 C          -4.562877    0.325370   -0.672257 C         1 UNL       -0.0860 ****
 35 C          -4.349132   -1.353445    1.176952 C         1 UNL       -0.0669 ****
 36 H          -4.366717   -0.607121    1.983447 H         1 UNL        0.0145 ****
 37 H          -3.762368   -2.199903    1.549871 H         1 UNL        0.0145 ****
 38 C          -4.157205    1.558545   -1.009138 C         1 UNL       -0.2429 ****
 39 H          -4.890255    2.254026   -1.419464 H         1 UNL        0.1334 ****
 40 C          -3.345090   -1.824141   -1.110673 C         1 UNL       -0.0833 ****
 41 H          -2.834638   -2.684608   -0.666692 H         1 UNL        0.0263 ****
 42 H          -4.270202   -2.196046   -1.557946 H         1 UNL        0.0263 ****
 43 H          -2.724669   -1.440028   -1.926259 H         1 UNL        0.0263 ****
 44 C          -6.003421   -0.097507   -0.893072 C         1 UNL       -0.1902 ****
 45 H          -6.585782    0.761457   -1.250683 H         1 UNL        0.0805 ****
 46 H          -6.068449   -0.869894   -1.672484 H         1 UNL        0.0805 ****
 47 C          -5.787699   -1.821833    0.913599 C         1 UNL       -0.0586 ****
 48 H          -5.810156   -2.645814    0.189481 H         1 UNL        0.0577 ****
 49 H          -6.231766   -2.205547    1.839149 H         1 UNL        0.0577 ****
 50 C           4.192974    0.698996   -0.085341 C         1 UNL       -0.0103 ****
 51 H           3.658686    0.409522   -0.995838 H         1 UNL       -0.0043 ****
 52 H           4.642902    1.679275   -0.298630 H         1 UNL       -0.0043 ****
 53 C          -6.643036   -0.683002    0.374137 C         1 UNL        0.2925 ****
 54 H          -6.709575    0.107863    1.139557 H         1 UNL        0.0149 ****
 55 C           3.855979    1.646212    2.242211 C         1 UNL       -0.1210 ****
 56 H           4.009386    2.691031    1.944311 H         1 UNL        0.0239 ****
 57 H           4.830724    1.237880    2.527747 H         1 UNL        0.0239 ****
 58 H           3.223421    1.644592    3.136847 H         1 UNL        0.0239 ****
 59 C           5.314826   -0.325872    0.153245 C         1 UNL        0.0066 ****
 60 H           5.872532   -0.062722    1.059934 H         1 UNL        0.0022 ****
 61 H           4.859291   -1.306674    0.345932 H         1 UNL        0.0022 ****
 62 C           6.282131   -0.423845   -1.037276 C         1 UNL       -0.0650 ****
 63 H           6.710466    0.571646   -1.223900 H         1 UNL        0.0039 ****
 64 H           5.705582   -0.678188   -1.938582 H         1 UNL        0.0039 ****
 65 C           7.445240   -1.434663   -0.904490 C         1 UNL        0.2607 ****
 66 H           8.016356   -1.361042   -1.841874 H         1 UNL       -0.0405 ****
 67 C           6.957064   -2.888134   -0.787040 C         1 UNL       -0.2078 ****
 68 H           6.274901   -3.147476   -1.605298 H         1 UNL        0.0404 ****
 69 H           7.800822   -3.586769   -0.821950 H         1 UNL        0.0404 ****
 70 H           6.428265   -3.062196    0.157170 H         1 UNL        0.0404 ****
 71 C           8.409954   -1.081842    0.239843 C         1 UNL       -0.2078 ****
 72 H           8.767086   -0.048582    0.156616 H         1 UNL        0.0404 ****
 73 H           9.286380   -1.739844    0.227513 H         1 UNL        0.0404 ****
 74 H           7.932668   -1.192885    1.220320 H         1 UNL        0.0404 ****
@<TRIPOS>BOND
    1     1     2 1
    2     1    53 1
    3     3     4 1
    4     3    10 1
    5     3    12 1
    6     3    30 1
    7     4     5 1
    8     4     6 1
    9     4    16 1
   10     6     7 1
   11     6     8 1
   12     6    25 1
   13     8     9 1
   14     8    15 1
   15     8    19 1
   16    10    11 1
   17    10    22 1
   18    10    28 1
   19    12    13 1
   20    12    14 1
   21    12    19 1
   22    15    34 1
   23    15    35 1
   24    15    40 1
   25    16    17 1
   26    16    18 1
   27    16    22 1
   28    19    20 1
   29    19    21 1
   30    22    23 1
   31    22    24 1
   32    25    26 1
   33    25    27 1
   34    25    38 1
   35    28    29 1
   36    28    50 1
   37    28    55 1
   38    30    31 1
   39    30    32 1
   40    30    33 1
   41    34    38 1
   42    34    44 1
   43    35    36 1
   44    35    37 1
   45    35    47 1
   46    38    39 1
   47    40    41 1
   48    40    42 1
   49    40    43 1
   50    44    45 1
   51    44    46 1
   52    44    53 1
   53    47    48 1
   54    47    49 1
   55    47    53 1
   56    50    51 1
   57    50    52 1
   58    50    59 1
   59    53    54 1
   60    55    56 1
   61    55    57 1
   62    55    58 1
   63    59    60 1
   64    59    61 1
   65    59    62 1
   66    62    63 1
   67    62    64 1
   68    62    65 1
   69    65    66 1
   70    65    67 1
   71    65    71 1
   72    67    68 1
   73    67    69 1
   74    67    70 1
   75    71    72 1
   76    71    73 1
   77    71    74 1
@<TRIPOS>SUBSTRUCTURE
      1  UNL              1 ****               0 ****  ****  


