@<TRIPOS>MOLECULE
UNL
   74    77     1     0     1
SMALL
USER_CHARGES
@<TRIPOS>ATOM
  1 O          -7.755025   -1.453928    0.204998 O         1 UNL       -0.7110 ****
  2 H          -8.367416   -0.735993   -0.003539 H         1 UNL        0.4224 ****
  3 C           0.783213    0.650071    0.174565 C         1 UNL        0.1031 ****
  4 C          -0.362568    1.681167    0.011540 C         1 UNL        0.0038 ****
  5 H          -0.587188    2.027804    1.034741 H         1 UNL        0.0229 ****
  6 C          -1.678782    1.101889   -0.520918 C         1 UNL       -0.0210 ****
  7 H          -1.520328    0.710560   -1.535712 H         1 UNL        0.0704 ****
  8 C          -2.151931   -0.052751    0.405256 C         1 UNL        0.0271 ****
  9 H          -2.417902    0.430864    1.359851 H         1 UNL        0.0345 ****
 10 C           1.908588    1.594101    0.701958 C         1 UNL        0.0292 ****
 11 H           1.564946    1.880038    1.706773 H         1 UNL        0.0061 ****
 12 C           0.300141   -0.412138    1.177771 C         1 UNL       -0.0918 ****
 13 H           0.152118    0.067871    2.156103 H         1 UNL        0.0150 ****
 14 H           1.055961   -1.195544    1.324304 H         1 UNL        0.0150 ****
 15 C          -3.470785   -0.733336   -0.106608 C         1 UNL        0.0706 ****
 16 C           0.298182    2.870803   -0.711712 C         1 UNL       -0.0981 ****
 17 H          -0.212979    3.816350   -0.504920 H         1 UNL        0.0290 ****
 18 H           0.270136    2.729423   -1.799300 H         1 UNL        0.0290 ****
 19 C          -1.021616   -1.065039    0.721088 C         1 UNL       -0.0720 ****
 20 H          -0.819777   -1.684459   -0.158630 H         1 UNL        0.0340 ****
 21 H          -1.357568   -1.755422    1.502856 H         1 UNL        0.0340 ****
 22 C           1.769357    2.868333   -0.189386 C         1 UNL       -0.1212 ****
 23 H           2.469796    2.847737   -1.028724 H         1 UNL        0.0400 ****
 24 H           1.997892    3.774531    0.381231 H         1 UNL        0.0400 ****
 25 C          -2.766929    2.184387   -0.598951 C         1 UNL       -0.0674 ****
 26 H          -2.563508    2.862487   -1.438532 H         1 UNL        0.0493 ****
 27 H          -2.721160    2.816830    0.303337 H         1 UNL        0.0493 ****
 28 C           3.340136    1.016013    0.911547 C         1 UNL        0.0833 ****
 29 H           3.210324   -0.043019    1.175479 H         1 UNL       -0.0116 ****
 30 C           1.174382   -0.019244   -1.161625 C         1 UNL       -0.1187 ****
 31 H           1.981446   -0.742301   -1.004815 H         1 UNL        0.0250 ****
 32 H           0.338832   -0.562080   -1.610171 H         1 UNL        0.0250 ****
 33 H           1.519297    0.706861   -1.903279 H         1 UNL        0.0250 ****
 34 C          -4.484217    0.335021   -0.541722 C         1 UNL       -0.0860 ****
 35 C          -4.099059   -1.548129    1.066966 C         1 UNL       -0.0669 ****
 36 H          -4.106351   -0.909810    1.961509 H         1 UNL        0.0145 ****
 37 H          -3.456740   -2.403932    1.301291 H         1 UNL        0.0145 ****
 38 C          -4.152322    1.619905   -0.735919 C         1 UNL       -0.2429 ****
 39 H          -4.936299    2.323198   -1.019092 H         1 UNL        0.1334 ****
 40 C          -3.198332   -1.679841   -1.306483 C         1 UNL       -0.0833 ****
 41 H          -2.626055   -2.560883   -0.999476 H         1 UNL        0.0263 ****
 42 H          -4.128696   -2.041070   -1.751618 H         1 UNL        0.0263 ****
 43 H          -2.641065   -1.166362   -2.096077 H         1 UNL        0.0263 ****
 44 C          -5.914100   -0.129414   -0.747412 C         1 UNL       -0.1902 ****
 45 H          -6.551950    0.736663   -0.966276 H         1 UNL        0.0805 ****
 46 H          -5.985459   -0.801642   -1.614144 H         1 UNL        0.0805 ****
 47 C          -5.527885   -2.051468    0.814799 C         1 UNL       -0.0586 ****
 48 H          -5.553055   -2.779667   -0.005500 H         1 UNL        0.0577 ****
 49 H          -5.905026   -2.568396    1.704533 H         1 UNL        0.0577 ****
 50 C           4.274046    1.090419   -0.321543 C         1 UNL       -0.0103 ****
 51 H           3.721521    0.838397   -1.232872 H         1 UNL       -0.0043 ****
 52 H           4.599888    2.132094   -0.445014 H         1 UNL       -0.0043 ****
 53 C          -6.459627   -0.898743    0.464201 C         1 UNL        0.2925 ****
 54 H          -6.520190   -0.213185    1.325652 H         1 UNL        0.0149 ****
 55 C           4.003352    1.703564    2.122912 C         1 UNL       -0.1210 ****
 56 H           4.100799    2.783288    1.953005 H         1 UNL        0.0239 ****
 57 H           5.005073    1.309827    2.322134 H         1 UNL        0.0239 ****
 58 H           3.408303    1.561937    3.031917 H         1 UNL        0.0239 ****
 59 C           5.530608    0.195671   -0.265819 C         1 UNL        0.0066 ****
 60 H           6.190530    0.500266   -1.087760 H         1 UNL        0.0022 ****
 61 H           6.089851    0.394404    0.656260 H         1 UNL        0.0022 ****
 62 C           5.238161   -1.309517   -0.388201 C         1 UNL       -0.0650 ****
 63 H           4.658283   -1.478410   -1.307356 H         1 UNL        0.0039 ****
 64 H           4.591510   -1.626104    0.440994 H         1 UNL        0.0039 ****
 65 C           6.468710   -2.247370   -0.414498 C         1 UNL        0.2607 ****
 66 H           6.066867   -3.267423   -0.505764 H         1 UNL       -0.0405 ****
 67 C           7.279763   -2.198172    0.891199 C         1 UNL       -0.2078 ****
 68 H           6.641385   -2.376186    1.764637 H         1 UNL        0.0404 ****
 69 H           8.065292   -2.962466    0.890807 H         1 UNL        0.0404 ****
 70 H           7.769606   -1.227070    1.026949 H         1 UNL        0.0404 ****
 71 C           7.372979   -2.009847   -1.635491 C         1 UNL       -0.2078 ****
 72 H           6.800522   -2.049034   -2.569779 H         1 UNL        0.0404 ****
 73 H           8.157399   -2.773161   -1.692617 H         1 UNL        0.0404 ****
 74 H           7.870547   -1.034396   -1.588457 H         1 UNL        0.0404 ****
@<TRIPOS>BOND
    1     1     2 1
    2     1    53 1
    3     3     4 1
    4     3    10 1
    5     3    12 1
    6     3    30 1
    7     4     5 1
    8     4     6 1
    9     4    16 1
   10     6     7 1
   11     6     8 1
   12     6    25 1
   13     8     9 1
   14     8    15 1
   15     8    19 1
   16    10    11 1
   17    10    22 1
   18    10    28 1
   19    12    13 1
   20    12    14 1
   21    12    19 1
   22    15    34 1
   23    15    35 1
   24    15    40 1
   25    16    17 1
   26    16    18 1
   27    16    22 1
   28    19    20 1
   29    19    21 1
   30    22    23 1
   31    22    24 1
   32    25    26 1
   33    25    27 1
   34    25    38 1
   35    28    29 1
   36    28    50 1
   37    28    55 1
   38    30    31 1
   39    30    32 1
   40    30    33 1
   41    34    38 1
   42    34    44 1
   43    35    36 1
   44    35    37 1
   45    35    47 1
   46    38    39 1
   47    40    41 1
   48    40    42 1
   49    40    43 1
   50    44    45 1
   51    44    46 1
   52    44    53 1
   53    47    48 1
   54    47    49 1
   55    47    53 1
   56    50    51 1
   57    50    52 1
   58    50    59 1
   59    53    54 1
   60    55    56 1
   61    55    57 1
   62    55    58 1
   63    59    60 1
   64    59    61 1
   65    59    62 1
   66    62    63 1
   67    62    64 1
   68    62    65 1
   69    65    66 1
   70    65    67 1
   71    65    71 1
   72    67    68 1
   73    67    69 1
   74    67    70 1
   75    71    72 1
   76    71    73 1
   77    71    74 1
@<TRIPOS>SUBSTRUCTURE
      1  UNL              1 ****               0 ****  ****  


