@<TRIPOS>MOLECULE
UNL
   74    77     1     0     1
SMALL
USER_CHARGES
@<TRIPOS>ATOM
  1 O          -8.092428    0.815239   -0.496399 O         1 UNL       -0.7110 ****
  2 H          -8.591351    0.001923   -0.649814 H         1 UNL        0.4224 ****
  3 C           0.644283   -0.109659    0.196528 C         1 UNL        0.1031 ****
  4 C          -0.336951   -1.256136   -0.177151 C         1 UNL        0.0038 ****
  5 H          -0.383244   -1.246490   -1.280034 H         1 UNL        0.0229 ****
  6 C          -1.783205   -1.068301    0.299530 C         1 UNL       -0.0210 ****
  7 H          -1.802038   -1.051014    1.398472 H         1 UNL        0.0704 ****
  8 C          -2.346357    0.272623   -0.239755 C         1 UNL        0.0271 ****
  9 H          -2.418199    0.143382   -1.332489 H         1 UNL        0.0345 ****
 10 C           1.970686   -0.672228   -0.423798 C         1 UNL        0.0292 ****
 11 H           1.875171   -0.545998   -1.514234 H         1 UNL        0.0061 ****
 12 C           0.076580    1.174969   -0.441899 C         1 UNL       -0.0918 ****
 13 H           0.106457    1.065596   -1.535776 H         1 UNL        0.0150 ****
 14 H           0.685611    2.051993   -0.200962 H         1 UNL        0.0150 ****
 15 C          -3.809628    0.556324    0.250946 C         1 UNL        0.0706 ****
 16 C           0.412594   -2.538463    0.213222 C         1 UNL       -0.0981 ****
 17 H           0.057124   -3.415910   -0.336168 H         1 UNL        0.0290 ****
 18 H           0.276311   -2.757138    1.279612 H         1 UNL        0.0290 ****
 19 C          -1.373688    1.448901    0.007482 C         1 UNL       -0.0720 ****
 20 H          -1.365605    1.707258    1.071766 H         1 UNL        0.0340 ****
 21 H          -1.734555    2.341901   -0.515257 H         1 UNL        0.0340 ****
 22 C           1.895997   -2.206715   -0.106617 C         1 UNL       -0.1212 ****
 23 H           2.545883   -2.454115    0.741074 H         1 UNL        0.0400 ****
 24 H           2.255322   -2.800392   -0.952330 H         1 UNL        0.0400 ****
 25 C          -2.671460   -2.232996   -0.167337 C         1 UNL       -0.0674 ****
 26 H          -2.449427   -3.135095    0.418203 H         1 UNL        0.0493 ****
 27 H          -2.418825   -2.492925   -1.208877 H         1 UNL        0.0493 ****
 28 C           3.332657   -0.052142   -0.017727 C         1 UNL        0.0833 ****
 29 H           3.467487   -0.237395    1.058237 H         1 UNL       -0.0116 ****
 30 C           0.796838    0.060153    1.725961 C         1 UNL       -0.1187 ****
 31 H           1.446750    0.910016    1.958596 H         1 UNL        0.0250 ****
 32 H          -0.160240    0.242280    2.220850 H         1 UNL        0.0250 ****
 33 H           1.238917   -0.824207    2.194809 H         1 UNL        0.0250 ****
 34 C          -4.665790   -0.711588    0.123267 C         1 UNL       -0.0860 ****
 35 C          -4.434862    1.658592   -0.659926 C         1 UNL       -0.0669 ****
 36 H          -4.234143    1.392102   -1.707026 H         1 UNL        0.0145 ****
 37 H          -3.926795    2.612127   -0.479363 H         1 UNL        0.0145 ****
 38 C          -4.140072   -1.928939   -0.077881 C         1 UNL       -0.2429 ****
 39 H          -4.817005   -2.777470   -0.183803 H         1 UNL        0.1334 ****
 40 C          -3.836472    1.029595    1.729097 C         1 UNL       -0.0833 ****
 41 H          -3.393118    2.024300    1.838928 H         1 UNL        0.0263 ****
 42 H          -4.858031    1.089649    2.112617 H         1 UNL        0.0263 ****
 43 H          -3.289551    0.336639    2.375967 H         1 UNL        0.0263 ****
 44 C          -6.168289   -0.531123    0.235163 C         1 UNL       -0.1902 ****
 45 H          -6.667489   -1.488129    0.035620 H         1 UNL        0.0805 ****
 46 H          -6.450775   -0.233901    1.255055 H         1 UNL        0.0805 ****
 47 C          -5.947716    1.858922   -0.488754 C         1 UNL       -0.0586 ****
 48 H          -6.187815    2.230099    0.515408 H         1 UNL        0.0577 ****
 49 H          -6.307876    2.614102   -1.196611 H         1 UNL        0.0577 ****
 50 C           4.507774   -0.757923   -0.762564 C         1 UNL       -0.0103 ****
 51 H           4.151615   -1.685340   -1.222488 H         1 UNL       -0.0043 ****
 52 H           4.832035   -0.125984   -1.600457 H         1 UNL       -0.0043 ****
 53 C          -6.700166    0.553749   -0.712463 C         1 UNL        0.2925 ****
 54 H          -6.545963    0.226076   -1.753914 H         1 UNL        0.0149 ****
 55 C           3.400353    1.469300   -0.245363 C         1 UNL       -0.1210 ****
 56 H           3.146796    1.719963   -1.282928 H         1 UNL        0.0239 ****
 57 H           4.408963    1.847767   -0.055112 H         1 UNL        0.0239 ****
 58 H           2.718993    2.020876    0.407108 H         1 UNL        0.0239 ****
 59 C           5.720018   -1.132079    0.115764 C         1 UNL        0.0066 ****
 60 H           5.360924   -1.765427    0.938856 H         1 UNL        0.0022 ****
 61 H           6.391591   -1.769785   -0.473395 H         1 UNL        0.0022 ****
 62 C           6.529994    0.027357    0.725580 C         1 UNL       -0.0650 ****
 63 H           7.263209   -0.397594    1.427159 H         1 UNL        0.0039 ****
 64 H           5.864893    0.651762    1.337237 H         1 UNL        0.0039 ****
 65 C           7.291420    0.934886   -0.264785 C         1 UNL        0.2607 ****
 66 H           6.571557    1.336977   -0.991900 H         1 UNL       -0.0405 ****
 67 C           8.370351    0.171324   -1.049942 C         1 UNL       -0.2078 ****
 68 H           7.948507   -0.639734   -1.651977 H         1 UNL        0.0404 ****
 69 H           8.905596    0.842195   -1.731504 H         1 UNL        0.0404 ****
 70 H           9.109828   -0.268261   -0.367857 H         1 UNL        0.0404 ****
 71 C           7.912723    2.128294    0.478797 C         1 UNL       -0.2078 ****
 72 H           7.150065    2.712607    1.006508 H         1 UNL        0.0404 ****
 73 H           8.432670    2.801741   -0.212075 H         1 UNL        0.0404 ****
 74 H           8.643538    1.786872    1.223214 H         1 UNL        0.0404 ****
@<TRIPOS>BOND
    1     1     2 1
    2     1    53 1
    3     3     4 1
    4     3    10 1
    5     3    12 1
    6     3    30 1
    7     4     5 1
    8     4     6 1
    9     4    16 1
   10     6     7 1
   11     6     8 1
   12     6    25 1
   13     8     9 1
   14     8    15 1
   15     8    19 1
   16    10    11 1
   17    10    22 1
   18    10    28 1
   19    12    13 1
   20    12    14 1
   21    12    19 1
   22    15    34 1
   23    15    35 1
   24    15    40 1
   25    16    17 1
   26    16    18 1
   27    16    22 1
   28    19    20 1
   29    19    21 1
   30    22    23 1
   31    22    24 1
   32    25    26 1
   33    25    27 1
   34    25    38 1
   35    28    29 1
   36    28    50 1
   37    28    55 1
   38    30    31 1
   39    30    32 1
   40    30    33 1
   41    34    38 1
   42    34    44 1
   43    35    36 1
   44    35    37 1
   45    35    47 1
   46    38    39 1
   47    40    41 1
   48    40    42 1
   49    40    43 1
   50    44    45 1
   51    44    46 1
   52    44    53 1
   53    47    48 1
   54    47    49 1
   55    47    53 1
   56    50    51 1
   57    50    52 1
   58    50    59 1
   59    53    54 1
   60    55    56 1
   61    55    57 1
   62    55    58 1
   63    59    60 1
   64    59    61 1
   65    59    62 1
   66    62    63 1
   67    62    64 1
   68    62    65 1
   69    65    66 1
   70    65    67 1
   71    65    71 1
   72    67    68 1
   73    67    69 1
   74    67    70 1
   75    71    72 1
   76    71    73 1
   77    71    74 1
@<TRIPOS>SUBSTRUCTURE
      1  UNL              1 ****               0 ****  ****  


