@<TRIPOS>MOLECULE
UNL
   74    77     1     0     1
SMALL
USER_CHARGES
@<TRIPOS>ATOM
  1 O           7.203261    1.983475    0.008502 O         1 UNL       -0.7110 ****
  2 H           7.669406    1.858626    0.845798 H         1 UNL        0.4224 ****
  3 C          -0.978353   -1.259064   -0.363008 C         1 UNL        0.1031 ****
  4 C          -0.099510   -1.239425    0.921716 C         1 UNL        0.0038 ****
  5 H          -0.352425   -0.293424    1.430111 H         1 UNL        0.0229 ****
  6 C           1.414705   -1.181417    0.682166 C         1 UNL       -0.0210 ****
  7 H           1.737469   -2.097156    0.167405 H         1 UNL        0.0704 ****
  8 C           1.762785    0.047647   -0.199441 C         1 UNL        0.0271 ****
  9 H           1.538349    0.929018    0.424116 H         1 UNL        0.0345 ****
 10 C          -2.394044   -1.325220    0.309059 C         1 UNL        0.0292 ****
 11 H          -2.508817   -0.345459    0.793278 H         1 UNL        0.0061 ****
 12 C          -0.651367    0.029387   -1.142707 C         1 UNL       -0.0918 ****
 13 H          -0.968404    0.896880   -0.546883 H         1 UNL        0.0150 ****
 14 H          -1.207480    0.076662   -2.086557 H         1 UNL        0.0150 ****
 15 C           3.294353    0.140329   -0.529353 C         1 UNL        0.0706 ****
 16 C          -0.675361   -2.369880    1.793822 C         1 UNL       -0.0981 ****
 17 H          -0.476515   -2.215726    2.859117 H         1 UNL        0.0290 ****
 18 H          -0.224913   -3.333373    1.524720 H         1 UNL        0.0290 ****
 19 C           0.856148    0.145098   -1.449649 C         1 UNL       -0.0720 ****
 20 H           1.126957   -0.635080   -2.168656 H         1 UNL        0.0340 ****
 21 H           1.034196    1.098726   -1.959284 H         1 UNL        0.0340 ****
 22 C          -2.196706   -2.353720    1.468571 C         1 UNL       -0.1212 ****
 23 H          -2.541034   -3.351163    1.177249 H         1 UNL        0.0400 ****
 24 H          -2.797409   -2.064912    2.338120 H         1 UNL        0.0400 ****
 25 C           2.178573   -1.100465    2.013842 C         1 UNL       -0.0674 ****
 26 H           2.152989   -2.073235    2.522786 H         1 UNL        0.0493 ****
 27 H           1.660727   -0.402947    2.693167 H         1 UNL        0.0493 ****
 28 C          -3.724015   -1.539213   -0.469426 C         1 UNL        0.0833 ****
 29 H          -4.483270   -1.587842    0.326093 H         1 UNL       -0.0116 ****
 30 C          -0.687230   -2.498831   -1.240584 C         1 UNL       -0.1187 ****
 31 H          -1.190911   -2.414401   -2.207832 H         1 UNL        0.0250 ****
 32 H           0.380048   -2.613531   -1.445345 H         1 UNL        0.0250 ****
 33 H          -1.026728   -3.426846   -0.773349 H         1 UNL        0.0250 ****
 34 C           4.125369   -0.127836    0.733477 C         1 UNL       -0.0860 ****
 35 C           3.611449    1.587530   -1.020125 C         1 UNL       -0.0669 ****
 36 H           3.143589    2.295928   -0.322277 H         1 UNL        0.0145 ****
 37 H           3.139299    1.753707   -1.994491 H         1 UNL        0.0145 ****
 38 C           3.605590   -0.660358    1.849301 C         1 UNL       -0.2429 ****
 39 H           4.256422   -0.795258    2.713988 H         1 UNL        0.1334 ****
 40 C           3.706826   -0.879576   -1.624400 C         1 UNL       -0.0833 ****
 41 H           3.274570   -0.620133   -2.595931 H         1 UNL        0.0263 ****
 42 H           4.791423   -0.912015   -1.754233 H         1 UNL        0.0263 ****
 43 H           3.382780   -1.891915   -1.363882 H         1 UNL        0.0263 ****
 44 C           5.595278    0.243905    0.670827 C         1 UNL       -0.1902 ****
 45 H           6.053672    0.090528    1.656324 H         1 UNL        0.0805 ****
 46 H           6.132888   -0.407488   -0.032710 H         1 UNL        0.0805 ****
 47 C           5.106360    1.922224   -1.126461 C         1 UNL       -0.0586 ****
 48 H           5.596683    1.309094   -1.892858 H         1 UNL        0.0577 ****
 49 H           5.235382    2.967078   -1.430943 H         1 UNL        0.0577 ****
 50 C          -4.124674   -0.363636   -1.394402 C         1 UNL       -0.0103 ****
 51 H          -3.387630   -0.278984   -2.203021 H         1 UNL       -0.0043 ****
 52 H          -5.069667   -0.639037   -1.884889 H         1 UNL       -0.0043 ****
 53 C           5.814135    1.689612    0.201982 C         1 UNL        0.2925 ****
 54 H           5.395386    2.377248    0.955350 H         1 UNL        0.0149 ****
 55 C          -3.866735   -2.858192   -1.255915 C         1 UNL       -0.1210 ****
 56 H          -3.312144   -2.838048   -2.198595 H         1 UNL        0.0239 ****
 57 H          -4.921033   -3.023836   -1.505280 H         1 UNL        0.0239 ****
 58 H          -3.527491   -3.728903   -0.687233 H         1 UNL        0.0239 ****
 59 C          -4.315813    1.022582   -0.748431 C         1 UNL        0.0066 ****
 60 H          -3.376697    1.359316   -0.295026 H         1 UNL        0.0022 ****
 61 H          -4.528503    1.733065   -1.557260 H         1 UNL        0.0022 ****
 62 C          -5.449201    1.079787    0.289417 C         1 UNL       -0.0650 ****
 63 H          -5.203142    0.423029    1.134471 H         1 UNL        0.0039 ****
 64 H          -6.360413    0.661687   -0.163459 H         1 UNL        0.0039 ****
 65 C          -5.788482    2.478432    0.857936 C         1 UNL        0.2607 ****
 66 H          -6.598714    2.319000    1.584813 H         1 UNL       -0.0405 ****
 67 C          -6.328486    3.442092   -0.211927 C         1 UNL       -0.2078 ****
 68 H          -7.172856    3.002040   -0.755464 H         1 UNL        0.0404 ****
 69 H          -6.676210    4.375378    0.245570 H         1 UNL        0.0404 ****
 70 H          -5.558984    3.706527   -0.946233 H         1 UNL        0.0404 ****
 71 C          -4.612442    3.106832    1.624011 C         1 UNL       -0.2078 ****
 72 H          -4.230627    2.428254    2.395985 H         1 UNL        0.0404 ****
 73 H          -4.920691    4.034937    2.118808 H         1 UNL        0.0404 ****
 74 H          -3.780530    3.354428    0.954603 H         1 UNL        0.0404 ****
@<TRIPOS>BOND
    1     1     2 1
    2     1    53 1
    3     3     4 1
    4     3    10 1
    5     3    12 1
    6     3    30 1
    7     4     5 1
    8     4     6 1
    9     4    16 1
   10     6     7 1
   11     6     8 1
   12     6    25 1
   13     8     9 1
   14     8    15 1
   15     8    19 1
   16    10    11 1
   17    10    22 1
   18    10    28 1
   19    12    13 1
   20    12    14 1
   21    12    19 1
   22    15    34 1
   23    15    35 1
   24    15    40 1
   25    16    17 1
   26    16    18 1
   27    16    22 1
   28    19    20 1
   29    19    21 1
   30    22    23 1
   31    22    24 1
   32    25    26 1
   33    25    27 1
   34    25    38 1
   35    28    29 1
   36    28    50 1
   37    28    55 1
   38    30    31 1
   39    30    32 1
   40    30    33 1
   41    34    38 1
   42    34    44 1
   43    35    36 1
   44    35    37 1
   45    35    47 1
   46    38    39 1
   47    40    41 1
   48    40    42 1
   49    40    43 1
   50    44    45 1
   51    44    46 1
   52    44    53 1
   53    47    48 1
   54    47    49 1
   55    47    53 1
   56    50    51 1
   57    50    52 1
   58    50    59 1
   59    53    54 1
   60    55    56 1
   61    55    57 1
   62    55    58 1
   63    59    60 1
   64    59    61 1
   65    59    62 1
   66    62    63 1
   67    62    64 1
   68    62    65 1
   69    65    66 1
   70    65    67 1
   71    65    71 1
   72    67    68 1
   73    67    69 1
   74    67    70 1
   75    71    72 1
   76    71    73 1
   77    71    74 1
@<TRIPOS>SUBSTRUCTURE
      1  UNL              1 ****               0 ****  ****  


