@<TRIPOS>MOLECULE
UNL
   76    79     1     0     1
SMALL
USER_CHARGES
@<TRIPOS>ATOM
  1 C           5.983578   -1.938117   -0.501425 C         1 UNL        0.3534 ****
  2 H           5.882001   -1.720953   -1.571827 H         1 UNL        0.0756 ****
  3 C           5.800786   -0.633313    0.289953 C         1 UNL       -0.2255 ****
  4 H           6.531867    0.107909   -0.047555 H         1 UNL        0.0860 ****
  5 H           6.032748   -0.846988    1.345224 H         1 UNL        0.0860 ****
  6 C           4.394216   -0.076044    0.170204 C         1 UNL       -0.0596 ****
  7 C           3.242810   -1.038448    0.487793 C         1 UNL        0.0821 ****
  8 C           3.504794   -2.375607   -0.272207 C         1 UNL       -0.0257 ****
  9 H           3.334858   -2.199595   -1.343133 H         1 UNL        0.0139 ****
 10 H           2.766163   -3.121282    0.041087 H         1 UNL        0.0139 ****
 11 C           4.916851   -2.954686   -0.094764 C         1 UNL       -0.1120 ****
 12 H           5.083168   -3.250212    0.951729 H         1 UNL        0.0356 ****
 13 H           5.028411   -3.862547   -0.698339 H         1 UNL        0.0356 ****
 14 C           4.210835    1.202003   -0.195981 C         1 UNL       -0.2397 ****
 15 H           5.080501    1.821530   -0.407133 H         1 UNL        0.1458 ****
 16 C           2.872186    1.865131   -0.346785 C         1 UNL        0.0469 ****
 17 H           2.904867    2.880822    0.067433 H         1 UNL        0.1216 ****
 18 C           1.737519    1.067899    0.321613 C         1 UNL       -0.0349 ****
 19 H           1.878866    1.225135    1.400000 H         1 UNL        0.0735 ****
 20 C           1.873656   -0.445028    0.000545 C         1 UNL        0.0219 ****
 21 H           1.885370   -0.515811   -1.097040 H         1 UNL        0.0477 ****
 22 C           0.648713   -1.256210    0.489484 C         1 UNL       -0.1110 ****
 23 H           0.675495   -1.353488    1.579480 H         1 UNL        0.0486 ****
 24 H           0.707602   -2.277159    0.095016 H         1 UNL        0.0486 ****
 25 C          -0.713948   -0.653488    0.090984 C         1 UNL       -0.0871 ****
 26 H          -0.829638   -0.693803   -1.001290 H         1 UNL        0.0110 ****
 27 H          -1.509315   -1.277895    0.513909 H         1 UNL        0.0110 ****
 28 C          -0.842860    0.811282    0.551883 C         1 UNL        0.1736 ****
 29 C           0.348819    1.584217   -0.083408 C         1 UNL        0.0361 ****
 30 H           0.263821    1.410259   -1.164408 H         1 UNL        0.0197 ****
 31 C           0.011680    3.067362    0.143521 C         1 UNL       -0.0975 ****
 32 H           0.501334    3.713258   -0.590632 H         1 UNL        0.0322 ****
 33 H           0.344473    3.397269    1.136033 H         1 UNL        0.0322 ****
 34 C          -1.539718    3.111677    0.034586 C         1 UNL       -0.0982 ****
 35 H          -1.975422    3.609099    0.906906 H         1 UNL        0.0303 ****
 36 H          -1.869731    3.682662   -0.840004 H         1 UNL        0.0303 ****
 37 C          -2.022638    1.630598   -0.074901 C         1 UNL        0.0447 ****
 38 H          -1.990793    1.374898   -1.144770 H         1 UNL        0.0016 ****
 39 C          -0.837137    0.890143    2.095881 C         1 UNL       -0.1948 ****
 40 H           0.124987    0.592845    2.521418 H         1 UNL        0.0350 ****
 41 H          -1.050768    1.898861    2.458909 H         1 UNL        0.0350 ****
 42 H          -1.592485    0.221397    2.519215 H         1 UNL        0.0350 ****
 43 C          -3.517840    1.435074    0.312700 C         1 UNL        0.0934 ****
 44 H          -4.041899    2.164988   -0.326305 H         1 UNL       -0.0195 ****
 45 C          -3.913953    1.778882    1.762922 C         1 UNL       -0.1447 ****
 46 H          -3.636101    0.985462    2.463398 H         1 UNL        0.0297 ****
 47 H          -4.997364    1.914618    1.839297 H         1 UNL        0.0297 ****
 48 H          -3.452821    2.707644    2.110905 H         1 UNL        0.0297 ****
 49 C           3.238931   -1.301527    2.018867 C         1 UNL       -0.1269 ****
 50 H           2.571838   -2.128806    2.278531 H         1 UNL        0.0335 ****
 51 H           4.233728   -1.563821    2.386678 H         1 UNL        0.0335 ****
 52 H           2.915600   -0.414537    2.572418 H         1 UNL        0.0335 ****
 53 O           2.514371    2.005086   -1.749576 O         1 UNL       -0.2308 ****
 54 O           3.434576    2.961729   -2.345943 O         1 UNL       -0.4246 ****
 55 H           3.977322    2.375383   -2.898742 H         1 UNL        0.4130 ****
 56 O           7.311315   -2.453400   -0.374440 O         1 UNL       -0.7180 ****
 57 H           7.463701   -2.693640    0.550345 H         1 UNL        0.4170 ****
 58 C          -4.054722    0.044378   -0.096346 C         1 UNL       -0.0294 ****
 59 H          -3.638652   -0.221642   -1.077864 H         1 UNL        0.0002 ****
 60 H          -3.684436   -0.713686    0.607430 H         1 UNL        0.0002 ****
 61 C          -5.586328   -0.059174   -0.176055 C         1 UNL        0.0067 ****
 62 H          -6.023280    0.148567    0.807329 H         1 UNL        0.0041 ****
 63 H          -5.964310    0.721044   -0.853839 H         1 UNL        0.0041 ****
 64 C          -6.063536   -1.431682   -0.673783 C         1 UNL       -0.0783 ****
 65 H          -5.722325   -2.211443    0.024638 H         1 UNL        0.0079 ****
 66 H          -5.569517   -1.646742   -1.632235 H         1 UNL        0.0079 ****
 67 C          -7.586838   -1.573746   -0.869596 C         1 UNL        0.2677 ****
 68 H          -7.912821   -0.760855   -1.536932 H         1 UNL       -0.0407 ****
 69 C          -7.919380   -2.906447   -1.559352 C         1 UNL       -0.2183 ****
 70 H          -7.611261   -3.756096   -0.936437 H         1 UNL        0.0433 ****
 71 H          -8.995752   -3.002734   -1.741989 H         1 UNL        0.0433 ****
 72 H          -7.405694   -2.997184   -2.523313 H         1 UNL        0.0433 ****
 73 C          -8.366975   -1.442437    0.448637 C         1 UNL       -0.2167 ****
 74 H          -8.057707   -2.218012    1.161575 H         1 UNL        0.0426 ****
 75 H          -9.443544   -1.558760    0.279380 H         1 UNL        0.0426 ****
 76 H          -8.212193   -0.469426    0.925362 H         1 UNL        0.0426 ****
@<TRIPOS>BOND
    1     1     2 1
    2     1     3 1
    3     1    11 1
    4     1    56 1
    5     3     4 1
    6     3     5 1
    7     3     6 1
    8     6     7 1
    9     6    14 1
   10     7     8 1
   11     7    20 1
   12     7    49 1
   13     8     9 1
   14     8    10 1
   15     8    11 1
   16    11    12 1
   17    11    13 1
   18    14    15 1
   19    14    16 1
   20    16    17 1
   21    16    18 1
   22    16    53 1
   23    18    19 1
   24    18    20 1
   25    18    29 1
   26    20    21 1
   27    20    22 1
   28    22    23 1
   29    22    24 1
   30    22    25 1
   31    25    26 1
   32    25    27 1
   33    25    28 1
   34    28    29 1
   35    28    37 1
   36    28    39 1
   37    29    30 1
   38    29    31 1
   39    31    32 1
   40    31    33 1
   41    31    34 1
   42    34    35 1
   43    34    36 1
   44    34    37 1
   45    37    38 1
   46    37    43 1
   47    39    40 1
   48    39    41 1
   49    39    42 1
   50    43    44 1
   51    43    45 1
   52    43    58 1
   53    45    46 1
   54    45    47 1
   55    45    48 1
   56    49    50 1
   57    49    51 1
   58    49    52 1
   59    53    54 1
   60    54    55 1
   61    56    57 1
   62    58    59 1
   63    58    60 1
   64    58    61 1
   65    61    62 1
   66    61    63 1
   67    61    64 1
   68    64    65 1
   69    64    66 1
   70    64    67 1
   71    67    68 1
   72    67    69 1
   73    67    73 1
   74    69    70 1
   75    69    71 1
   76    69    72 1
   77    73    74 1
   78    73    75 1
   79    73    76 1
@<TRIPOS>SUBSTRUCTURE
      1  UNL              1 ****               0 ****  ****  


