@<TRIPOS>MOLECULE
UNL
   76    79     1     0     1
SMALL
USER_CHARGES
@<TRIPOS>ATOM
  1 C           6.452471   -0.173263   -1.092052 C         1 UNL        0.3534 ****
  2 H           6.173864    0.442375   -1.956121 H         1 UNL        0.0756 ****
  3 C           5.934361    0.502543    0.187432 C         1 UNL       -0.2255 ****
  4 H           6.341319    1.515939    0.259641 H         1 UNL        0.0860 ****
  5 H           6.332810   -0.059119    1.047008 H         1 UNL        0.0860 ****
  6 C           4.418442    0.539495    0.249485 C         1 UNL       -0.0596 ****
  7 C           3.687925   -0.792346    0.036748 C         1 UNL        0.0821 ****
  8 C           4.293990   -1.481639   -1.224834 C         1 UNL       -0.0257 ****
  9 H           3.964360   -0.923133   -2.111485 H         1 UNL        0.0139 ****
 10 H           3.878733   -2.490623   -1.321267 H         1 UNL        0.0139 ****
 11 C           5.828337   -1.560334   -1.245099 C         1 UNL       -0.1120 ****
 12 H           6.191404   -2.208711   -0.433943 H         1 UNL        0.0356 ****
 13 H           6.168334   -2.012396   -2.183705 H         1 UNL        0.0356 ****
 14 C           3.787101    1.700349    0.483820 C         1 UNL       -0.2397 ****
 15 H           4.376922    2.604637    0.621977 H         1 UNL        0.1458 ****
 16 C           2.296721    1.861562    0.569597 C         1 UNL        0.0469 ****
 17 H           2.036350    2.534973    1.395990 H         1 UNL        0.1216 ****
 18 C           1.563908    0.518950    0.742816 C         1 UNL       -0.0349 ****
 19 H           1.753772    0.223572    1.784373 H         1 UNL        0.0735 ****
 20 C           2.157046   -0.551222   -0.211581 C         1 UNL        0.0219 ****
 21 H           2.076525   -0.125041   -1.222353 H         1 UNL        0.0477 ****
 22 C           1.324576   -1.855969   -0.206206 C         1 UNL       -0.1110 ****
 23 H           1.499964   -2.406951    0.723340 H         1 UNL        0.0486 ****
 24 H           1.670207   -2.511956   -1.013507 H         1 UNL        0.0486 ****
 25 C          -0.195414   -1.645428   -0.362904 C         1 UNL       -0.0871 ****
 26 H          -0.410733   -1.238033   -1.360989 H         1 UNL        0.0110 ****
 27 H          -0.685320   -2.623159   -0.312683 H         1 UNL        0.0110 ****
 28 C          -0.749246   -0.671294    0.696831 C         1 UNL        0.1736 ****
 29 C           0.048154    0.652452    0.531307 C         1 UNL        0.0361 ****
 30 H          -0.090697    0.942633   -0.519192 H         1 UNL        0.0197 ****
 31 C          -0.726471    1.680921    1.367645 C         1 UNL       -0.0975 ****
 32 H          -0.555457    2.702716    1.017675 H         1 UNL        0.0322 ****
 33 H          -0.416799    1.645057    2.420020 H         1 UNL        0.0322 ****
 34 C          -2.208088    1.238859    1.209915 C         1 UNL       -0.0982 ****
 35 H          -2.688194    1.133595    2.190065 H         1 UNL        0.0303 ****
 36 H          -2.792101    1.983650    0.660324 H         1 UNL        0.0303 ****
 37 C          -2.203197   -0.133210    0.458083 C         1 UNL        0.0447 ****
 38 H          -2.268679    0.070908   -0.620528 H         1 UNL        0.0016 ****
 39 C          -0.625508   -1.273462    2.114780 C         1 UNL       -0.1948 ****
 40 H           0.412221   -1.466133    2.398990 H         1 UNL        0.0350 ****
 41 H          -1.050723   -0.613974    2.877415 H         1 UNL        0.0350 ****
 42 H          -1.157411   -2.228881    2.176884 H         1 UNL        0.0350 ****
 43 C          -3.415146   -1.020253    0.836916 C         1 UNL        0.0934 ****
 44 H          -3.350189   -1.217166    1.917052 H         1 UNL       -0.0195 ****
 45 C          -3.432812   -2.386016    0.124748 C         1 UNL       -0.1447 ****
 46 H          -3.330181   -2.282312   -0.961236 H         1 UNL        0.0297 ****
 47 H          -4.377283   -2.907539    0.320615 H         1 UNL        0.0297 ****
 48 H          -2.626321   -3.038021    0.469739 H         1 UNL        0.0297 ****
 49 C           3.930828   -1.684047    1.285478 C         1 UNL       -0.1269 ****
 50 H           3.606233   -2.713672    1.108354 H         1 UNL        0.0335 ****
 51 H           4.988924   -1.723092    1.554954 H         1 UNL        0.0335 ****
 52 H           3.391541   -1.300270    2.157072 H         1 UNL        0.0335 ****
 53 O           1.767928    2.472190   -0.639888 O         1 UNL       -0.2308 ****
 54 O           2.249638    3.844595   -0.687477 O         1 UNL       -0.4246 ****
 55 H           2.892927    3.789104   -1.413440 H         1 UNL        0.4130 ****
 56 O           7.881374   -0.205501   -1.132958 O         1 UNL       -0.7180 ****
 57 H           8.200148   -0.758913   -0.406129 H         1 UNL        0.4170 ****
 58 C          -4.770071   -0.288642    0.632470 C         1 UNL       -0.0294 ****
 59 H          -5.554855   -0.944636    1.031593 H         1 UNL        0.0002 ****
 60 H          -4.793146    0.615223    1.254598 H         1 UNL        0.0002 ****
 61 C          -5.124297    0.102316   -0.812215 C         1 UNL        0.0067 ****
 62 H          -4.323733    0.726819   -1.228407 H         1 UNL        0.0041 ****
 63 H          -5.164376   -0.792399   -1.445394 H         1 UNL        0.0041 ****
 64 C          -6.442119    0.889862   -0.942915 C         1 UNL       -0.0783 ****
 65 H          -6.551096    1.219222   -1.986986 H         1 UNL        0.0079 ****
 66 H          -6.360013    1.808217   -0.343578 H         1 UNL        0.0079 ****
 67 C          -7.738195    0.157193   -0.534897 C         1 UNL        0.2677 ****
 68 H          -7.642060   -0.157830    0.513954 H         1 UNL       -0.0407 ****
 69 C          -8.936765    1.116130   -0.617947 C         1 UNL       -0.2183 ****
 70 H          -9.088435    1.464297   -1.647843 H         1 UNL        0.0433 ****
 71 H          -9.862040    0.626250   -0.293606 H         1 UNL        0.0433 ****
 72 H          -8.785966    1.999797    0.012766 H         1 UNL        0.0433 ****
 73 C          -7.993965   -1.098806   -1.383049 C         1 UNL       -0.2167 ****
 74 H          -8.075654   -0.839956   -2.446872 H         1 UNL        0.0426 ****
 75 H          -8.930009   -1.586491   -1.087730 H         1 UNL        0.0426 ****
 76 H          -7.191999   -1.837053   -1.281049 H         1 UNL        0.0426 ****
@<TRIPOS>BOND
    1     1     2 1
    2     1     3 1
    3     1    11 1
    4     1    56 1
    5     3     4 1
    6     3     5 1
    7     3     6 1
    8     6     7 1
    9     6    14 1
   10     7     8 1
   11     7    20 1
   12     7    49 1
   13     8     9 1
   14     8    10 1
   15     8    11 1
   16    11    12 1
   17    11    13 1
   18    14    15 1
   19    14    16 1
   20    16    17 1
   21    16    18 1
   22    16    53 1
   23    18    19 1
   24    18    20 1
   25    18    29 1
   26    20    21 1
   27    20    22 1
   28    22    23 1
   29    22    24 1
   30    22    25 1
   31    25    26 1
   32    25    27 1
   33    25    28 1
   34    28    29 1
   35    28    37 1
   36    28    39 1
   37    29    30 1
   38    29    31 1
   39    31    32 1
   40    31    33 1
   41    31    34 1
   42    34    35 1
   43    34    36 1
   44    34    37 1
   45    37    38 1
   46    37    43 1
   47    39    40 1
   48    39    41 1
   49    39    42 1
   50    43    44 1
   51    43    45 1
   52    43    58 1
   53    45    46 1
   54    45    47 1
   55    45    48 1
   56    49    50 1
   57    49    51 1
   58    49    52 1
   59    53    54 1
   60    54    55 1
   61    56    57 1
   62    58    59 1
   63    58    60 1
   64    58    61 1
   65    61    62 1
   66    61    63 1
   67    61    64 1
   68    64    65 1
   69    64    66 1
   70    64    67 1
   71    67    68 1
   72    67    69 1
   73    67    73 1
   74    69    70 1
   75    69    71 1
   76    69    72 1
   77    73    74 1
   78    73    75 1
   79    73    76 1
@<TRIPOS>SUBSTRUCTURE
      1  UNL              1 ****               0 ****  ****  


