@<TRIPOS>MOLECULE
UNL
   76    79     1     0     1
SMALL
USER_CHARGES
@<TRIPOS>ATOM
  1 C           5.773843    1.906971    0.416589 C         1 UNL        0.3534 ****
  2 H           5.593886    1.867091    1.497921 H         1 UNL        0.0756 ****
  3 C           5.624596    0.491996   -0.164648 C         1 UNL       -0.2255 ****
  4 H           6.317460   -0.188557    0.339928 H         1 UNL        0.0860 ****
  5 H           5.933707    0.530189   -1.221076 H         1 UNL        0.0860 ****
  6 C           4.203799   -0.030804   -0.058289 C         1 UNL       -0.0596 ****
  7 C           3.094195    0.873715   -0.609230 C         1 UNL        0.0821 ****
  8 C           3.325058    2.314848   -0.058047 C         1 UNL       -0.0257 ****
  9 H           3.077574    2.315796    1.012236 H         1 UNL        0.0139 ****
 10 H           2.622993    3.003876   -0.539788 H         1 UNL        0.0139 ****
 11 C           4.755748    2.849991   -0.224442 C         1 UNL       -0.1120 ****
 12 H           5.000060    2.971242   -1.290155 H         1 UNL        0.0356 ****
 13 H           4.840023    3.843019    0.231344 H         1 UNL        0.0356 ****
 14 C           3.973220   -1.231512    0.495084 C         1 UNL       -0.2397 ****
 15 H           4.815091   -1.813301    0.865886 H         1 UNL        0.1458 ****
 16 C           2.616097   -1.854065    0.653658 C         1 UNL        0.0469 ****
 17 H           2.660379   -2.923550    0.411774 H         1 UNL        0.1216 ****
 18 C           1.544972   -1.169277   -0.214475 C         1 UNL       -0.0349 ****
 19 H           1.758818   -1.500050   -1.240390 H         1 UNL        0.0735 ****
 20 C           1.684356    0.374920   -0.132375 C         1 UNL        0.0219 ****
 21 H           1.620861    0.622132    0.937519 H         1 UNL        0.0477 ****
 22 C           0.510774    1.103755   -0.831870 C         1 UNL       -0.1110 ****
 23 H           0.615517    1.024234   -1.918576 H         1 UNL        0.0486 ****
 24 H           0.559392    2.174524   -0.602756 H         1 UNL        0.0486 ****
 25 C          -0.886561    0.580782   -0.440933 C         1 UNL       -0.0871 ****
 26 H          -1.077616    0.797643    0.619545 H         1 UNL        0.0110 ****
 27 H          -1.639562    1.132950   -1.014931 H         1 UNL        0.0110 ****
 28 C          -1.007842   -0.938400   -0.668283 C         1 UNL        0.1736 ****
 29 C           0.122544   -1.605216    0.167414 C         1 UNL        0.0361 ****
 30 H          -0.035190   -1.257948    1.197251 H         1 UNL        0.0197 ****
 31 C          -0.223756   -3.103600    0.158931 C         1 UNL       -0.0975 ****
 32 H           0.200986   -3.624408    1.021614 H         1 UNL        0.0322 ****
 33 H           0.172959   -3.592269   -0.740191 H         1 UNL        0.0322 ****
 34 C          -1.779606   -3.120744    0.160041 C         1 UNL       -0.0982 ****
 35 H          -2.160686   -3.749713   -0.650704 H         1 UNL        0.0303 ****
 36 H          -2.180967   -3.541365    1.088392 H         1 UNL        0.0303 ****
 37 C          -2.242818   -1.638579   -0.004712 C         1 UNL        0.0447 ****
 38 H          -2.281000   -1.214100    1.009911 H         1 UNL        0.0016 ****
 39 C          -0.895186   -1.265884   -2.174943 C         1 UNL       -0.1948 ****
 40 H           0.098853   -1.045038   -2.572752 H         1 UNL        0.0350 ****
 41 H          -1.098506   -2.319196   -2.384890 H         1 UNL        0.0350 ****
 42 H          -1.608766   -0.671436   -2.753212 H         1 UNL        0.0350 ****
 43 C          -3.703399   -1.496430   -0.525225 C         1 UNL        0.0934 ****
 44 H          -4.285377   -2.105803    0.185952 H         1 UNL       -0.0195 ****
 45 C          -4.004174   -2.072932   -1.923705 C         1 UNL       -0.1447 ****
 46 H          -3.659519   -1.410554   -2.723534 H         1 UNL        0.0297 ****
 47 H          -5.081999   -2.208903   -2.056669 H         1 UNL        0.0297 ****
 48 H          -3.540544   -3.051485   -2.077969 H         1 UNL        0.0297 ****
 49 C           3.202084    0.885022   -2.158956 C         1 UNL       -0.1269 ****
 50 H           2.570090    1.663802   -2.595930 H         1 UNL        0.0335 ****
 51 H           4.224823    1.077335   -2.491852 H         1 UNL        0.0335 ****
 52 H           2.901752   -0.077746   -2.583976 H         1 UNL        0.0335 ****
 53 O           2.158239   -1.763248    2.031157 O         1 UNL       -0.2308 ****
 54 O           3.015995   -2.618156    2.838053 O         1 UNL       -0.4246 ****
 55 H           3.529425   -1.954549    3.327908 H         1 UNL        0.4130 ****
 56 O           7.115843    2.387350    0.303719 O         1 UNL       -0.7180 ****
 57 H           7.337153    2.471932   -0.634383 H         1 UNL        0.4170 ****
 58 C          -4.237842   -0.051132   -0.389885 C         1 UNL       -0.0294 ****
 59 H          -3.860067    0.373546    0.548508 H         1 UNL        0.0002 ****
 60 H          -3.822949    0.570898   -1.195511 H         1 UNL        0.0002 ****
 61 C          -5.770562    0.068076   -0.412884 C         1 UNL        0.0067 ****
 62 H          -6.158231   -0.364207   -1.343443 H         1 UNL        0.0041 ****
 63 H          -6.191445   -0.541813    0.398236 H         1 UNL        0.0041 ****
 64 C          -6.299896    1.511207   -0.315825 C         1 UNL       -0.0783 ****
 65 H          -7.392744    1.491793   -0.441074 H         1 UNL        0.0079 ****
 66 H          -5.908795    2.083723   -1.169511 H         1 UNL        0.0079 ****
 67 C          -5.980157    2.289038    0.978740 C         1 UNL        0.2677 ****
 68 H          -4.887886    2.331939    1.095660 H         1 UNL       -0.0407 ****
 69 C          -6.486360    3.736047    0.865251 C         1 UNL       -0.2183 ****
 70 H          -7.577860    3.760878    0.751755 H         1 UNL        0.0433 ****
 71 H          -6.232309    4.318168    1.758472 H         1 UNL        0.0433 ****
 72 H          -6.050459    4.245083   -0.002180 H         1 UNL        0.0433 ****
 73 C          -6.561696    1.611161    2.229498 C         1 UNL       -0.2167 ****
 74 H          -7.653119    1.521323    2.151783 H         1 UNL        0.0426 ****
 75 H          -6.340291    2.195483    3.129871 H         1 UNL        0.0426 ****
 76 H          -6.155121    0.606101    2.381678 H         1 UNL        0.0426 ****
@<TRIPOS>BOND
    1     1     2 1
    2     1     3 1
    3     1    11 1
    4     1    56 1
    5     3     4 1
    6     3     5 1
    7     3     6 1
    8     6     7 1
    9     6    14 1
   10     7     8 1
   11     7    20 1
   12     7    49 1
   13     8     9 1
   14     8    10 1
   15     8    11 1
   16    11    12 1
   17    11    13 1
   18    14    15 1
   19    14    16 1
   20    16    17 1
   21    16    18 1
   22    16    53 1
   23    18    19 1
   24    18    20 1
   25    18    29 1
   26    20    21 1
   27    20    22 1
   28    22    23 1
   29    22    24 1
   30    22    25 1
   31    25    26 1
   32    25    27 1
   33    25    28 1
   34    28    29 1
   35    28    37 1
   36    28    39 1
   37    29    30 1
   38    29    31 1
   39    31    32 1
   40    31    33 1
   41    31    34 1
   42    34    35 1
   43    34    36 1
   44    34    37 1
   45    37    38 1
   46    37    43 1
   47    39    40 1
   48    39    41 1
   49    39    42 1
   50    43    44 1
   51    43    45 1
   52    43    58 1
   53    45    46 1
   54    45    47 1
   55    45    48 1
   56    49    50 1
   57    49    51 1
   58    49    52 1
   59    53    54 1
   60    54    55 1
   61    56    57 1
   62    58    59 1
   63    58    60 1
   64    58    61 1
   65    61    62 1
   66    61    63 1
   67    61    64 1
   68    64    65 1
   69    64    66 1
   70    64    67 1
   71    67    68 1
   72    67    69 1
   73    67    73 1
   74    69    70 1
   75    69    71 1
   76    69    72 1
   77    73    74 1
   78    73    75 1
   79    73    76 1
@<TRIPOS>SUBSTRUCTURE
      1  UNL              1 ****               0 ****  ****  


