@<TRIPOS>MOLECULE
UNL
   76    79     1     0     1
SMALL
USER_CHARGES
@<TRIPOS>ATOM
  1 C           6.617547    0.004440   -0.611861 C         1 UNL        0.3534 ****
  2 H           6.425974    0.586325   -1.521779 H         1 UNL        0.0756 ****
  3 C           5.909581    0.684168    0.570964 C         1 UNL       -0.2255 ****
  4 H           6.259324    1.716891    0.665640 H         1 UNL        0.0860 ****
  5 H           6.217642    0.161468    1.490168 H         1 UNL        0.0860 ****
  6 C           4.398235    0.651374    0.437064 C         1 UNL       -0.0596 ****
  7 C           3.760126   -0.717638    0.170242 C         1 UNL        0.0821 ****
  8 C           4.553691   -1.406510   -0.982837 C         1 UNL       -0.0257 ****
  9 H           4.317812   -0.884576   -1.920224 H         1 UNL        0.0139 ****
 10 H           4.198639   -2.435794   -1.102673 H         1 UNL        0.0139 ****
 11 C           6.079686   -1.413589   -0.803703 C         1 UNL       -0.1120 ****
 12 H           6.362677   -2.025546    0.065536 H         1 UNL        0.0356 ****
 13 H           6.557739   -1.870460   -1.677594 H         1 UNL        0.0356 ****
 14 C           3.691827    1.786315    0.555462 C         1 UNL       -0.2397 ****
 15 H           4.218777    2.720093    0.742769 H         1 UNL        0.1458 ****
 16 C           2.197371    1.879550    0.443807 C         1 UNL        0.0469 ****
 17 H           1.803079    2.559153    1.209919 H         1 UNL        0.1216 ****
 18 C           1.507235    0.508298    0.559811 C         1 UNL       -0.0349 ****
 19 H           1.572876    0.245805    1.625071 H         1 UNL        0.0735 ****
 20 C           2.265161   -0.554167   -0.279049 C         1 UNL        0.0219 ****
 21 H           2.297629   -0.156122   -1.303882 H         1 UNL        0.0477 ****
 22 C           1.495854   -1.895117   -0.341266 C         1 UNL       -0.1110 ****
 23 H           1.570747   -2.413652    0.620008 H         1 UNL        0.0486 ****
 24 H           1.971767   -2.554924   -1.075900 H         1 UNL        0.0486 ****
 25 C           0.002169   -1.759053   -0.700911 C         1 UNL       -0.0871 ****
 26 H          -0.097118   -1.384030   -1.729530 H         1 UNL        0.0110 ****
 27 H          -0.446368   -2.757345   -0.688740 H         1 UNL        0.0110 ****
 28 C          -0.728997   -0.787855    0.249110 C         1 UNL        0.1736 ****
 29 C           0.027076    0.566703    0.152141 C         1 UNL        0.0361 ****
 30 H           0.011601    0.830243   -0.914405 H         1 UNL        0.0197 ****
 31 C          -0.891679    1.572695    0.857574 C         1 UNL       -0.0975 ****
 32 H          -0.710550    2.597846    0.522805 H         1 UNL        0.0322 ****
 33 H          -0.732293    1.555036    1.943312 H         1 UNL        0.0322 ****
 34 C          -2.317960    1.075452    0.495384 C         1 UNL       -0.0982 ****
 35 H          -2.944677    0.994165    1.391666 H         1 UNL        0.0303 ****
 36 H          -2.821110    1.782795   -0.170162 H         1 UNL        0.0303 ****
 37 C          -2.162802   -0.325589   -0.190855 C         1 UNL        0.0447 ****
 38 H          -2.109458   -0.165472   -1.279419 H         1 UNL        0.0016 ****
 39 C          -0.767304   -1.348396    1.689437 C         1 UNL       -0.1948 ****
 40 H           0.231308   -1.483831    2.113031 H         1 UNL        0.0350 ****
 41 H          -1.318351   -0.690749    2.368495 H         1 UNL        0.0350 ****
 42 H          -1.260611   -2.325674    1.712334 H         1 UNL        0.0350 ****
 43 C          -3.378714   -1.253685    0.064992 C         1 UNL        0.0934 ****
 44 H          -3.489134   -1.368737    1.154193 H         1 UNL       -0.0195 ****
 45 C          -3.209416   -2.655464   -0.548373 C         1 UNL       -0.1447 ****
 46 H          -2.974272   -2.587333   -1.617871 H         1 UNL        0.0297 ****
 47 H          -4.125322   -3.245875   -0.449045 H         1 UNL        0.0297 ****
 48 H          -2.411024   -3.225054   -0.067181 H         1 UNL        0.0297 ****
 49 C           3.878306   -1.568429    1.464708 C         1 UNL       -0.1269 ****
 50 H           3.622355   -2.615431    1.277360 H         1 UNL        0.0335 ****
 51 H           4.893993   -1.553488    1.867083 H         1 UNL        0.0335 ****
 52 H           3.216531   -1.189324    2.249588 H         1 UNL        0.0335 ****
 53 O           1.804099    2.436069   -0.841076 O         1 UNL       -0.2308 ****
 54 O           2.233533    3.826135   -0.869890 O         1 UNL       -0.4246 ****
 55 H           2.968685    3.778754   -1.503350 H         1 UNL        0.4130 ****
 56 O           8.039802    0.038628   -0.468839 O         1 UNL       -0.7180 ****
 57 H           8.286060   -0.482475    0.308315 H         1 UNL        0.4170 ****
 58 C          -4.681697   -0.596900   -0.459779 C         1 UNL       -0.0294 ****
 59 H          -4.680431    0.466135   -0.200882 H         1 UNL        0.0002 ****
 60 H          -4.679477   -0.641564   -1.560086 H         1 UNL        0.0002 ****
 61 C          -5.980987   -1.223649    0.072491 C         1 UNL        0.0067 ****
 62 H          -5.984882   -2.302150   -0.126424 H         1 UNL        0.0041 ****
 63 H          -6.005188   -1.122902    1.166173 H         1 UNL        0.0041 ****
 64 C          -7.267428   -0.636767   -0.538358 C         1 UNL       -0.0783 ****
 65 H          -8.126920   -1.212099   -0.163143 H         1 UNL        0.0079 ****
 66 H          -7.243726   -0.803635   -1.625042 H         1 UNL        0.0079 ****
 67 C          -7.544823    0.860065   -0.282217 C         1 UNL        0.2677 ****
 68 H          -6.698162    1.440811   -0.675172 H         1 UNL       -0.0407 ****
 69 C          -8.800853    1.304023   -1.049160 C         1 UNL       -0.2183 ****
 70 H          -9.686955    0.760548   -0.696444 H         1 UNL        0.0433 ****
 71 H          -8.992493    2.374639   -0.913983 H         1 UNL        0.0433 ****
 72 H          -8.700544    1.114258   -2.124046 H         1 UNL        0.0433 ****
 73 C          -7.684977    1.183157    1.213767 C         1 UNL       -0.2167 ****
 74 H          -8.506890    0.608616    1.660700 H         1 UNL        0.0426 ****
 75 H          -7.902613    2.246479    1.365702 H         1 UNL        0.0426 ****
 76 H          -6.773489    0.950939    1.774042 H         1 UNL        0.0426 ****
@<TRIPOS>BOND
    1     1     2 1
    2     1     3 1
    3     1    11 1
    4     1    56 1
    5     3     4 1
    6     3     5 1
    7     3     6 1
    8     6     7 1
    9     6    14 1
   10     7     8 1
   11     7    20 1
   12     7    49 1
   13     8     9 1
   14     8    10 1
   15     8    11 1
   16    11    12 1
   17    11    13 1
   18    14    15 1
   19    14    16 1
   20    16    17 1
   21    16    18 1
   22    16    53 1
   23    18    19 1
   24    18    20 1
   25    18    29 1
   26    20    21 1
   27    20    22 1
   28    22    23 1
   29    22    24 1
   30    22    25 1
   31    25    26 1
   32    25    27 1
   33    25    28 1
   34    28    29 1
   35    28    37 1
   36    28    39 1
   37    29    30 1
   38    29    31 1
   39    31    32 1
   40    31    33 1
   41    31    34 1
   42    34    35 1
   43    34    36 1
   44    34    37 1
   45    37    38 1
   46    37    43 1
   47    39    40 1
   48    39    41 1
   49    39    42 1
   50    43    44 1
   51    43    45 1
   52    43    58 1
   53    45    46 1
   54    45    47 1
   55    45    48 1
   56    49    50 1
   57    49    51 1
   58    49    52 1
   59    53    54 1
   60    54    55 1
   61    56    57 1
   62    58    59 1
   63    58    60 1
   64    58    61 1
   65    61    62 1
   66    61    63 1
   67    61    64 1
   68    64    65 1
   69    64    66 1
   70    64    67 1
   71    67    68 1
   72    67    69 1
   73    67    73 1
   74    69    70 1
   75    69    71 1
   76    69    72 1
   77    73    74 1
   78    73    75 1
   79    73    76 1
@<TRIPOS>SUBSTRUCTURE
      1  UNL              1 ****               0 ****  ****  


