@<TRIPOS>MOLECULE
UNL
   76    79     1     0     1
SMALL
USER_CHARGES
@<TRIPOS>ATOM
  1 C           6.558878   -0.227818   -0.955046 C         1 UNL        0.3534 ****
  2 H           6.326392    0.387380   -1.832962 H         1 UNL        0.0756 ****
  3 C           5.998443    0.462903    0.298402 C         1 UNL       -0.2255 ****
  4 H           6.418008    1.470190    0.382853 H         1 UNL        0.0860 ****
  5 H           6.351470   -0.100314    1.176613 H         1 UNL        0.0860 ****
  6 C           4.482041    0.523898    0.296314 C         1 UNL       -0.0596 ****
  7 C           3.739990   -0.797346    0.059332 C         1 UNL        0.0821 ****
  8 C           4.387471   -1.503386   -1.172046 C         1 UNL       -0.0257 ****
  9 H           4.104010   -0.945322   -2.074777 H         1 UNL        0.0139 ****
 10 H           3.960932   -2.506452   -1.280352 H         1 UNL        0.0139 ****
 11 C           5.919931   -1.605818   -1.127486 C         1 UNL       -0.1120 ****
 12 H           6.238595   -2.255331   -0.298781 H         1 UNL        0.0356 ****
 13 H           6.291802   -2.068173   -2.048834 H         1 UNL        0.0356 ****
 14 C           3.859901    1.695733    0.498477 C         1 UNL       -0.2397 ****
 15 H           4.457717    2.591305    0.657462 H         1 UNL        0.1458 ****
 16 C           2.369985    1.881035    0.519856 C         1 UNL        0.0469 ****
 17 H           2.085768    2.563265    1.331029 H         1 UNL        0.1216 ****
 18 C           1.609003    0.551045    0.668234 C         1 UNL       -0.0349 ****
 19 H           1.749599    0.258383    1.718295 H         1 UNL        0.0735 ****
 20 C           2.225068   -0.533297   -0.254656 C         1 UNL        0.0219 ****
 21 H           2.194309   -0.111827   -1.270139 H         1 UNL        0.0477 ****
 22 C           1.371575   -1.823674   -0.277147 C         1 UNL       -0.1110 ****
 23 H           1.496595   -2.370645    0.662919 H         1 UNL        0.0486 ****
 24 H           1.740587   -2.491400   -1.064234 H         1 UNL        0.0486 ****
 25 C          -0.136187   -1.588924   -0.501675 C         1 UNL       -0.0871 ****
 26 H          -0.300317   -1.181811   -1.509560 H         1 UNL        0.0110 ****
 27 H          -0.642433   -2.558758   -0.471561 H         1 UNL        0.0110 ****
 28 C          -0.721490   -0.600888    0.528794 C         1 UNL        0.1736 ****
 29 C           0.105748    0.708097    0.392295 C         1 UNL        0.0361 ****
 30 H           0.015270    0.997585   -0.663739 H         1 UNL        0.0197 ****
 31 C          -0.685044    1.750494    1.193331 C         1 UNL       -0.0975 ****
 32 H          -0.470882    2.770337    0.861895 H         1 UNL        0.0322 ****
 33 H          -0.433602    1.698615    2.260433 H         1 UNL        0.0322 ****
 34 C          -2.165164    1.347510    0.949665 C         1 UNL       -0.0982 ****
 35 H          -2.713762    1.280504    1.896958 H         1 UNL        0.0303 ****
 36 H          -2.682536    2.098882    0.346120 H         1 UNL        0.0303 ****
 37 C          -2.156591   -0.042913    0.225541 C         1 UNL        0.0447 ****
 38 H          -2.187526    0.140521   -0.860167 H         1 UNL        0.0016 ****
 39 C          -0.669761   -1.194408    1.955301 C         1 UNL       -0.1948 ****
 40 H           0.351322   -1.400656    2.286594 H         1 UNL        0.0350 ****
 41 H          -1.117800   -0.521817    2.692991 H         1 UNL        0.0350 ****
 42 H          -1.219485   -2.140263    2.002057 H         1 UNL        0.0350 ****
 43 C          -3.402974   -0.899652    0.569376 C         1 UNL        0.0934 ****
 44 H          -3.426843   -1.034748    1.661732 H         1 UNL       -0.0195 ****
 45 C          -3.382218   -2.294554   -0.080432 C         1 UNL       -0.1447 ****
 46 H          -3.280709   -2.217735   -1.170443 H         1 UNL        0.0297 ****
 47 H          -4.305839   -2.842380    0.128662 H         1 UNL        0.0297 ****
 48 H          -2.558267   -2.909621    0.287883 H         1 UNL        0.0297 ****
 49 C           3.915999   -1.686024    1.321326 C         1 UNL       -0.1269 ****
 50 H           3.580102   -2.710606    1.136279 H         1 UNL        0.0335 ****
 51 H           4.961529   -1.742635    1.633415 H         1 UNL        0.0335 ****
 52 H           3.349168   -1.287680    2.168527 H         1 UNL        0.0335 ****
 53 O           1.902864    2.492733   -0.714221 O         1 UNL       -0.2308 ****
 54 O           2.411778    3.855541   -0.751125 O         1 UNL       -0.4246 ****
 55 H           3.085408    3.781908   -1.447360 H         1 UNL        0.4130 ****
 56 O           7.987554   -0.282520   -0.935935 O         1 UNL       -0.7180 ****
 57 H           8.266911   -0.836743   -0.193668 H         1 UNL        0.4170 ****
 58 C          -4.696794   -0.143169    0.176361 C         1 UNL       -0.0294 ****
 59 H          -4.646151    0.883215    0.558192 H         1 UNL        0.0002 ****
 60 H          -4.728833   -0.058440   -0.919567 H         1 UNL        0.0002 ****
 61 C          -6.002724   -0.769012    0.695198 C         1 UNL        0.0067 ****
 62 H          -6.175240   -1.745399    0.228210 H         1 UNL        0.0041 ****
 63 H          -5.892160   -0.966820    1.770954 H         1 UNL        0.0041 ****
 64 C          -7.246286    0.118535    0.501562 C         1 UNL       -0.0783 ****
 65 H          -7.086566    1.065563    1.037147 H         1 UNL        0.0079 ****
 66 H          -8.103830   -0.366000    0.991780 H         1 UNL        0.0079 ****
 67 C          -7.645480    0.444131   -0.953666 C         1 UNL        0.2677 ****
 68 H          -6.794915    0.942346   -1.440498 H         1 UNL       -0.0407 ****
 69 C          -7.981697   -0.816560   -1.766006 C         1 UNL       -0.2183 ****
 70 H          -8.813472   -1.365855   -1.305789 H         1 UNL        0.0433 ****
 71 H          -8.281654   -0.555350   -2.787253 H         1 UNL        0.0433 ****
 72 H          -7.130265   -1.500996   -1.838566 H         1 UNL        0.0433 ****
 73 C          -8.826638    1.427644   -0.971947 C         1 UNL       -0.2167 ****
 74 H          -9.712822    0.983394   -0.500486 H         1 UNL        0.0426 ****
 75 H          -9.099303    1.703753   -1.996964 H         1 UNL        0.0426 ****
 76 H          -8.587755    2.349115   -0.428599 H         1 UNL        0.0426 ****
@<TRIPOS>BOND
    1     1     2 1
    2     1     3 1
    3     1    11 1
    4     1    56 1
    5     3     4 1
    6     3     5 1
    7     3     6 1
    8     6     7 1
    9     6    14 1
   10     7     8 1
   11     7    20 1
   12     7    49 1
   13     8     9 1
   14     8    10 1
   15     8    11 1
   16    11    12 1
   17    11    13 1
   18    14    15 1
   19    14    16 1
   20    16    17 1
   21    16    18 1
   22    16    53 1
   23    18    19 1
   24    18    20 1
   25    18    29 1
   26    20    21 1
   27    20    22 1
   28    22    23 1
   29    22    24 1
   30    22    25 1
   31    25    26 1
   32    25    27 1
   33    25    28 1
   34    28    29 1
   35    28    37 1
   36    28    39 1
   37    29    30 1
   38    29    31 1
   39    31    32 1
   40    31    33 1
   41    31    34 1
   42    34    35 1
   43    34    36 1
   44    34    37 1
   45    37    38 1
   46    37    43 1
   47    39    40 1
   48    39    41 1
   49    39    42 1
   50    43    44 1
   51    43    45 1
   52    43    58 1
   53    45    46 1
   54    45    47 1
   55    45    48 1
   56    49    50 1
   57    49    51 1
   58    49    52 1
   59    53    54 1
   60    54    55 1
   61    56    57 1
   62    58    59 1
   63    58    60 1
   64    58    61 1
   65    61    62 1
   66    61    63 1
   67    61    64 1
   68    64    65 1
   69    64    66 1
   70    64    67 1
   71    67    68 1
   72    67    69 1
   73    67    73 1
   74    69    70 1
   75    69    71 1
   76    69    72 1
   77    73    74 1
   78    73    75 1
   79    73    76 1
@<TRIPOS>SUBSTRUCTURE
      1  UNL              1 ****               0 ****  ****  


