@<TRIPOS>MOLECULE
UNL
   76    79     1     0     1
SMALL
USER_CHARGES
@<TRIPOS>ATOM
  1 C           6.715698   -0.410097   -0.651546 C         1 UNL        0.3534 ****
  2 H           6.570374    0.173210   -1.569079 H         1 UNL        0.0756 ****
  3 C           6.091032    0.353431    0.527019 C         1 UNL       -0.2255 ****
  4 H           6.539557    1.349044    0.600371 H         1 UNL        0.0860 ****
  5 H           6.358768   -0.181712    1.451722 H         1 UNL        0.0860 ****
  6 C           4.581967    0.464528    0.410160 C         1 UNL       -0.0596 ****
  7 C           3.811453   -0.840294    0.172887 C         1 UNL        0.0821 ****
  8 C           4.520917   -1.620909   -0.976523 C         1 UNL       -0.0257 ****
  9 H           4.324687   -1.093765   -1.920108 H         1 UNL        0.0139 ****
 10 H           4.067042   -2.612938   -1.074908 H         1 UNL        0.0139 ****
 11 C           6.041286   -1.772299   -0.813806 C         1 UNL       -0.1120 ****
 12 H           6.274774   -2.395003    0.062483 H         1 UNL        0.0356 ****
 13 H           6.462253   -2.286838   -1.685003 H         1 UNL        0.0356 ****
 14 C           3.989742    1.663942    0.518492 C         1 UNL       -0.2397 ****
 15 H           4.606540    2.545196    0.684810 H         1 UNL        0.1458 ****
 16 C           2.509941    1.899398    0.422603 C         1 UNL        0.0469 ****
 17 H           2.192718    2.624018    1.183226 H         1 UNL        0.1216 ****
 18 C           1.692284    0.602871    0.566659 C         1 UNL       -0.0349 ****
 19 H           1.745661    0.350300    1.635064 H         1 UNL        0.0735 ****
 20 C           2.334146   -0.539606   -0.263821 C         1 UNL        0.0219 ****
 21 H           2.393289   -0.161018   -1.294824 H         1 UNL        0.0477 ****
 22 C           1.438318   -1.800583   -0.298303 C         1 UNL       -0.1110 ****
 23 H           1.474040   -2.310854    0.669607 H         1 UNL        0.0486 ****
 24 H           1.839552   -2.513168   -1.028192 H         1 UNL        0.0486 ****
 25 C          -0.039288   -1.525181   -0.644525 C         1 UNL       -0.0871 ****
 26 H          -0.113648   -1.155847   -1.677278 H         1 UNL        0.0110 ****
 27 H          -0.581618   -2.475327   -0.613898 H         1 UNL        0.0110 ****
 28 C          -0.662420   -0.475390    0.299074 C         1 UNL        0.1736 ****
 29 C           0.219919    0.798416    0.173964 C         1 UNL        0.0361 ****
 30 H           0.217085    1.047173   -0.896198 H         1 UNL        0.0197 ****
 31 C          -0.588830    1.898306    0.873702 C         1 UNL       -0.0975 ****
 32 H          -0.313508    2.896276    0.521498 H         1 UNL        0.0322 ****
 33 H          -0.418771    1.880455    1.957866 H         1 UNL        0.0322 ****
 34 C          -2.060654    1.536242    0.534495 C         1 UNL       -0.0982 ****
 35 H          -2.680594    1.527462    1.439161 H         1 UNL        0.0303 ****
 36 H          -2.502900    2.279233   -0.135422 H         1 UNL        0.0303 ****
 37 C          -2.049686    0.117467   -0.132711 C         1 UNL        0.0447 ****
 38 H          -1.993606    0.256987   -1.223928 H         1 UNL        0.0016 ****
 39 C          -0.736941   -1.010042    1.747676 C         1 UNL       -0.1948 ****
 40 H           0.249675   -1.230177    2.163652 H         1 UNL        0.0350 ****
 41 H          -1.218263   -0.295297    2.421999 H         1 UNL        0.0350 ****
 42 H          -1.317251   -1.937713    1.789582 H         1 UNL        0.0350 ****
 43 C          -3.348423   -0.682606    0.148577 C         1 UNL        0.0934 ****
 44 H          -3.457431   -0.772691    1.240340 H         1 UNL       -0.0195 ****
 45 C          -3.328425   -2.102095   -0.445891 C         1 UNL       -0.1447 ****
 46 H          -3.130586   -2.071718   -1.524810 H         1 UNL        0.0297 ****
 47 H          -4.287999   -2.606813   -0.299672 H         1 UNL        0.0297 ****
 48 H          -2.564954   -2.732717    0.015093 H         1 UNL        0.0297 ****
 49 C           3.862158   -1.677543    1.480468 C         1 UNL       -0.1269 ****
 50 H           3.503984   -2.697775    1.313966 H         1 UNL        0.0335 ****
 51 H           4.879264   -1.754470    1.872038 H         1 UNL        0.0335 ****
 52 H           3.249424   -1.223469    2.265453 H         1 UNL        0.0335 ****
 53 O           2.155955    2.474383   -0.865541 O         1 UNL       -0.2308 ****
 54 O           2.714480    3.817196   -0.917308 O         1 UNL       -0.4246 ****
 55 H           3.431898    3.693622   -1.560711 H         1 UNL        0.4130 ****
 56 O           8.136268   -0.511396   -0.524031 O         1 UNL       -0.7180 ****
 57 H           8.340437   -1.041522    0.259195 H         1 UNL        0.4170 ****
 58 C          -4.581349    0.099847   -0.369246 C         1 UNL       -0.0294 ****
 59 H          -4.507633    1.145558   -0.050384 H         1 UNL        0.0002 ****
 60 H          -4.551862    0.115663   -1.469695 H         1 UNL        0.0002 ****
 61 C          -5.946415   -0.434092    0.094515 C         1 UNL        0.0067 ****
 62 H          -6.092909   -1.459106   -0.263340 H         1 UNL        0.0041 ****
 63 H          -5.957007   -0.485785    1.193694 H         1 UNL        0.0041 ****
 64 C          -7.114177    0.445620   -0.377377 C         1 UNL       -0.0783 ****
 65 H          -7.128870    0.471503   -1.477910 H         1 UNL        0.0079 ****
 66 H          -6.926396    1.479209   -0.053088 H         1 UNL        0.0079 ****
 67 C          -8.509111    0.023845    0.127834 C         1 UNL        0.2677 ****
 68 H          -8.459572   -0.038525    1.226084 H         1 UNL       -0.0407 ****
 69 C          -9.557234    1.088633   -0.232971 C         1 UNL       -0.2183 ****
 70 H          -9.646516    1.195505   -1.321726 H         1 UNL        0.0433 ****
 71 H         -10.546507    0.821614    0.155973 H         1 UNL        0.0433 ****
 72 H          -9.288702    2.069231    0.176432 H         1 UNL        0.0433 ****
 73 C          -8.939123   -1.353358   -0.403320 C         1 UNL       -0.2167 ****
 74 H          -8.977892   -1.351273   -1.500530 H         1 UNL        0.0426 ****
 75 H          -9.937351   -1.619537   -0.037367 H         1 UNL        0.0426 ****
 76 H          -8.253014   -2.148375   -0.094711 H         1 UNL        0.0426 ****
@<TRIPOS>BOND
    1     1     2 1
    2     1     3 1
    3     1    11 1
    4     1    56 1
    5     3     4 1
    6     3     5 1
    7     3     6 1
    8     6     7 1
    9     6    14 1
   10     7     8 1
   11     7    20 1
   12     7    49 1
   13     8     9 1
   14     8    10 1
   15     8    11 1
   16    11    12 1
   17    11    13 1
   18    14    15 1
   19    14    16 1
   20    16    17 1
   21    16    18 1
   22    16    53 1
   23    18    19 1
   24    18    20 1
   25    18    29 1
   26    20    21 1
   27    20    22 1
   28    22    23 1
   29    22    24 1
   30    22    25 1
   31    25    26 1
   32    25    27 1
   33    25    28 1
   34    28    29 1
   35    28    37 1
   36    28    39 1
   37    29    30 1
   38    29    31 1
   39    31    32 1
   40    31    33 1
   41    31    34 1
   42    34    35 1
   43    34    36 1
   44    34    37 1
   45    37    38 1
   46    37    43 1
   47    39    40 1
   48    39    41 1
   49    39    42 1
   50    43    44 1
   51    43    45 1
   52    43    58 1
   53    45    46 1
   54    45    47 1
   55    45    48 1
   56    49    50 1
   57    49    51 1
   58    49    52 1
   59    53    54 1
   60    54    55 1
   61    56    57 1
   62    58    59 1
   63    58    60 1
   64    58    61 1
   65    61    62 1
   66    61    63 1
   67    61    64 1
   68    64    65 1
   69    64    66 1
   70    64    67 1
   71    67    68 1
   72    67    69 1
   73    67    73 1
   74    69    70 1
   75    69    71 1
   76    69    72 1
   77    73    74 1
   78    73    75 1
   79    73    76 1
@<TRIPOS>SUBSTRUCTURE
      1  UNL              1 ****               0 ****  ****  


