@<TRIPOS>MOLECULE
UNL
   76    79     1     0     1
SMALL
USER_CHARGES
@<TRIPOS>ATOM
  1 C           5.737336    1.656174   -0.160014 C         1 UNL        0.3534 ****
  2 H           5.397409    2.282962    0.673554 H         1 UNL        0.0756 ****
  3 C           5.496905    0.180748    0.197221 C         1 UNL       -0.2255 ****
  4 H           6.016412   -0.062106    1.129376 H         1 UNL        0.0860 ****
  5 H           5.959689   -0.433862   -0.590901 H         1 UNL        0.0860 ****
  6 C           4.021192   -0.152862    0.315968 C         1 UNL       -0.0596 ****
  7 C           3.128123    0.244132   -0.866281 C         1 UNL        0.0821 ****
  8 C           3.456115    1.721199   -1.246779 C         1 UNL       -0.0257 ****
  9 H           3.056154    2.374417   -0.459324 H         1 UNL        0.0139 ****
 10 H           2.925519    1.984651   -2.168092 H         1 UNL        0.0139 ****
 11 C           4.951870    2.028635   -1.417422 C         1 UNL       -0.1120 ****
 12 H           5.363392    1.475485   -2.274640 H         1 UNL        0.0356 ****
 13 H           5.093374    3.093440   -1.634503 H         1 UNL        0.0356 ****
 14 C           3.561702   -0.767797    1.416793 C         1 UNL       -0.2397 ****
 15 H           4.259613   -1.014846    2.214653 H         1 UNL        0.1458 ****
 16 C           2.128271   -1.150330    1.647879 C         1 UNL        0.0469 ****
 17 H           2.072112   -2.147244    2.103178 H         1 UNL        0.1216 ****
 18 C           1.291986   -1.121646    0.355635 C         1 UNL       -0.0349 ****
 19 H           1.612055   -2.009535   -0.207162 H         1 UNL        0.0735 ****
 20 C           1.611902    0.153490   -0.470510 C         1 UNL        0.0219 ****
 21 H           1.423445    1.000315    0.205645 H         1 UNL        0.0477 ****
 22 C           0.655281    0.321489   -1.676381 C         1 UNL       -0.1110 ****
 23 H           0.905111   -0.404083   -2.456900 H         1 UNL        0.0486 ****
 24 H           0.805989    1.310101   -2.125070 H         1 UNL        0.0486 ****
 25 C          -0.838542    0.162805   -1.327053 C         1 UNL       -0.0871 ****
 26 H          -1.147444    0.980751   -0.661653 H         1 UNL        0.0110 ****
 27 H          -1.425529    0.266292   -2.247338 H         1 UNL        0.0110 ****
 28 C          -1.118142   -1.182168   -0.628989 C         1 UNL        0.1736 ****
 29 C          -0.214668   -1.221863    0.637508 C         1 UNL        0.0361 ****
 30 H          -0.476773   -0.321720    1.209255 H         1 UNL        0.0197 ****
 31 C          -0.739502   -2.418721    1.448562 C         1 UNL       -0.0975 ****
 32 H          -0.517882   -2.316226    2.514551 H         1 UNL        0.0322 ****
 33 H          -0.274828   -3.354055    1.111184 H         1 UNL        0.0322 ****
 34 C          -2.267477   -2.420178    1.155729 C         1 UNL       -0.0982 ****
 35 H          -2.595131   -3.405127    0.807894 H         1 UNL        0.0303 ****
 36 H          -2.854314   -2.201980    2.054567 H         1 UNL        0.0303 ****
 37 C          -2.515506   -1.324690    0.069731 C         1 UNL        0.0447 ****
 38 H          -2.639687   -0.381194    0.618756 H         1 UNL        0.0016 ****
 39 C          -0.823849   -2.355615   -1.592088 C         1 UNL       -0.1948 ****
 40 H           0.240668   -2.440049   -1.825978 H         1 UNL        0.0350 ****
 41 H          -1.138846   -3.317572   -1.179851 H         1 UNL        0.0350 ****
 42 H          -1.347956   -2.217436   -2.542248 H         1 UNL        0.0350 ****
 43 C          -3.858353   -1.519307   -0.691402 C         1 UNL        0.0934 ****
 44 H          -4.596918   -1.635004    0.116438 H         1 UNL       -0.0195 ****
 45 C          -3.992701   -2.789266   -1.556193 C         1 UNL       -0.1447 ****
 46 H          -3.460590   -2.698761   -2.507782 H         1 UNL        0.0297 ****
 47 H          -5.048937   -2.961498   -1.792604 H         1 UNL        0.0297 ****
 48 H          -3.623473   -3.686246   -1.050537 H         1 UNL        0.0297 ****
 49 C           3.463314   -0.688701   -2.062429 C         1 UNL       -0.1269 ****
 50 H           3.003112   -0.329838   -2.987784 H         1 UNL        0.0335 ****
 51 H           4.539694   -0.746561   -2.240905 H         1 UNL        0.0335 ****
 52 H           3.112915   -1.709196   -1.879303 H         1 UNL        0.0335 ****
 53 O           1.487958   -0.236046    2.580342 O         1 UNL       -0.2308 ****
 54 O           2.105907   -0.430599    3.883378 O         1 UNL       -0.4246 ****
 55 H           2.621437    0.388669    3.967027 H         1 UNL        0.4130 ****
 56 O           7.131292    1.953453   -0.274094 O         1 UNL       -0.7180 ****
 57 H           7.496326    1.449488   -1.014997 H         1 UNL        0.4170 ****
 58 C          -4.307058   -0.297622   -1.530564 C         1 UNL       -0.0294 ****
 59 H          -3.596679   -0.149585   -2.354090 H         1 UNL        0.0002 ****
 60 H          -5.261421   -0.561265   -2.009296 H         1 UNL        0.0002 ****
 61 C          -4.503130    1.042792   -0.795595 C         1 UNL        0.0067 ****
 62 H          -3.555010    1.374079   -0.357268 H         1 UNL        0.0041 ****
 63 H          -4.761779    1.794870   -1.551845 H         1 UNL        0.0041 ****
 64 C          -5.596448    1.011084    0.285460 C         1 UNL       -0.0783 ****
 65 H          -5.299222    0.317701    1.083409 H         1 UNL        0.0079 ****
 66 H          -6.513119    0.591247   -0.154722 H         1 UNL        0.0079 ****
 67 C          -5.950812    2.366949    0.941672 C         1 UNL        0.2677 ****
 68 H          -6.722400    2.144328    1.693532 H         1 UNL       -0.0407 ****
 69 C          -4.760515    2.992264    1.687828 C         1 UNL       -0.2183 ****
 70 H          -3.967992    3.301291    0.996509 H         1 UNL        0.0433 ****
 71 H          -5.073760    3.882888    2.244504 H         1 UNL        0.0433 ****
 72 H          -4.323132    2.287558    2.404765 H         1 UNL        0.0433 ****
 73 C          -6.567207    3.366531   -0.051194 C         1 UNL       -0.2167 ****
 74 H          -5.840272    3.692655   -0.803932 H         1 UNL        0.0426 ****
 75 H          -6.920751    4.263734    0.469676 H         1 UNL        0.0426 ****
 76 H          -7.422365    2.928448   -0.579292 H         1 UNL        0.0426 ****
@<TRIPOS>BOND
    1     1     2 1
    2     1     3 1
    3     1    11 1
    4     1    56 1
    5     3     4 1
    6     3     5 1
    7     3     6 1
    8     6     7 1
    9     6    14 1
   10     7     8 1
   11     7    20 1
   12     7    49 1
   13     8     9 1
   14     8    10 1
   15     8    11 1
   16    11    12 1
   17    11    13 1
   18    14    15 1
   19    14    16 1
   20    16    17 1
   21    16    18 1
   22    16    53 1
   23    18    19 1
   24    18    20 1
   25    18    29 1
   26    20    21 1
   27    20    22 1
   28    22    23 1
   29    22    24 1
   30    22    25 1
   31    25    26 1
   32    25    27 1
   33    25    28 1
   34    28    29 1
   35    28    37 1
   36    28    39 1
   37    29    30 1
   38    29    31 1
   39    31    32 1
   40    31    33 1
   41    31    34 1
   42    34    35 1
   43    34    36 1
   44    34    37 1
   45    37    38 1
   46    37    43 1
   47    39    40 1
   48    39    41 1
   49    39    42 1
   50    43    44 1
   51    43    45 1
   52    43    58 1
   53    45    46 1
   54    45    47 1
   55    45    48 1
   56    49    50 1
   57    49    51 1
   58    49    52 1
   59    53    54 1
   60    54    55 1
   61    56    57 1
   62    58    59 1
   63    58    60 1
   64    58    61 1
   65    61    62 1
   66    61    63 1
   67    61    64 1
   68    64    65 1
   69    64    66 1
   70    64    67 1
   71    67    68 1
   72    67    69 1
   73    67    73 1
   74    69    70 1
   75    69    71 1
   76    69    72 1
   77    73    74 1
   78    73    75 1
   79    73    76 1
@<TRIPOS>SUBSTRUCTURE
      1  UNL              1 ****               0 ****  ****  


