@<TRIPOS>MOLECULE
UNL
   76    79     1     0     1
SMALL
USER_CHARGES
@<TRIPOS>ATOM
  1 C           6.035444   -1.050000   -1.058401 C         1 UNL        0.3534 ****
  2 H           5.755276   -0.765499   -2.080062 H         1 UNL        0.0756 ****
  3 C           5.704637    0.113436   -0.110195 C         1 UNL       -0.2255 ****
  4 H           6.226062    1.017387   -0.440012 H         1 UNL        0.0860 ****
  5 H           6.108832   -0.138936    0.882773 H         1 UNL        0.0860 ****
  6 C           4.212747    0.373892   -0.012117 C         1 UNL       -0.0596 ****
  7 C           3.323443   -0.831285    0.319188 C         1 UNL        0.0821 ****
  8 C           3.741641   -2.012659   -0.610087 C         1 UNL       -0.0257 ****
  9 H           3.402527   -1.783090   -1.629429 H         1 UNL        0.0139 ****
 10 H           3.210956   -2.920407   -0.303346 H         1 UNL        0.0139 ****
 11 C           5.250734   -2.298210   -0.654699 C         1 UNL       -0.1120 ****
 12 H           5.606532   -2.643814    0.327202 H         1 UNL        0.0356 ****
 13 H           5.458548   -3.106088   -1.365403 H         1 UNL        0.0356 ****
 14 C           3.736421    1.612916   -0.209695 C         1 UNL       -0.2397 ****
 15 H           4.432763    2.416014   -0.443875 H         1 UNL        0.1458 ****
 16 C           2.285913    1.993754   -0.135760 C         1 UNL        0.0469 ****
 17 H           2.173227    2.952819    0.385568 H         1 UNL        0.1216 ****
 18 C           1.426893    0.921407    0.558537 C         1 UNL       -0.0349 ****
 19 H           1.676118    1.007613    1.625308 H         1 UNL        0.0735 ****
 20 C           1.813384   -0.495032    0.053562 C         1 UNL        0.0219 ****
 21 H           1.697267   -0.462637   -1.039734 H         1 UNL        0.0477 ****
 22 C           0.844430   -1.584608    0.574937 C         1 UNL       -0.1110 ****
 23 H           1.029892   -1.774355    1.636882 H         1 UNL        0.0486 ****
 24 H           1.049942   -2.530178    0.060110 H         1 UNL        0.0486 ****
 25 C          -0.649044   -1.243008    0.396804 C         1 UNL       -0.0871 ****
 26 H          -0.890006   -1.203659   -0.674473 H         1 UNL        0.0110 ****
 27 H          -1.246980   -2.056302    0.824861 H         1 UNL        0.0110 ****
 28 C          -1.001526    0.112839    1.038234 C         1 UNL        0.1736 ****
 29 C          -0.076935    1.173078    0.372502 C         1 UNL        0.0361 ****
 30 H          -0.267695    1.088714   -0.705621 H         1 UNL        0.0197 ****
 31 C          -0.662267    2.525990    0.811746 C         1 UNL       -0.0975 ****
 32 H          -0.412894    3.324756    0.107664 H         1 UNL        0.0322 ****
 33 H          -0.266492    2.824294    1.791014 H         1 UNL        0.0322 ****
 34 C          -2.192656    2.257182    0.889252 C         1 UNL       -0.0982 ****
 35 H          -2.590847    2.557985    1.863671 H         1 UNL        0.0303 ****
 36 H          -2.745683    2.834787    0.140652 H         1 UNL        0.0303 ****
 37 C          -2.390672    0.726797    0.644888 C         1 UNL        0.0447 ****
 38 H          -2.441554    0.601478   -0.445342 H         1 UNL        0.0016 ****
 39 C          -0.803564    0.047398    2.570361 C         1 UNL       -0.1948 ****
 40 H           0.248094   -0.067772    2.845447 H         1 UNL        0.0350 ****
 41 H          -1.169746    0.946183    3.072995 H         1 UNL        0.0350 ****
 42 H          -1.338260   -0.807643    2.994086 H         1 UNL        0.0350 ****
 43 C          -3.758689    0.202259    1.168520 C         1 UNL        0.0934 ****
 44 H          -4.485619    0.905341    0.733278 H         1 UNL       -0.0195 ****
 45 C          -3.991367    0.260471    2.692093 C         1 UNL       -0.1447 ****
 46 H          -3.476211   -0.548053    3.219054 H         1 UNL        0.0297 ****
 47 H          -5.061263    0.152641    2.904083 H         1 UNL        0.0297 ****
 48 H          -3.667643    1.207375    3.133887 H         1 UNL        0.0297 ****
 49 C           3.569295   -1.222991    1.802228 C         1 UNL       -0.1269 ****
 50 H           3.115542   -2.189982    2.038615 H         1 UNL        0.0335 ****
 51 H           4.635285   -1.305237    2.027305 H         1 UNL        0.0335 ****
 52 H           3.154004   -0.474352    2.484004 H         1 UNL        0.0335 ****
 53 O           1.726908    2.180713   -1.465360 O         1 UNL       -0.2308 ****
 54 O           2.356259    3.356913   -2.046833 O         1 UNL       -0.4246 ****
 55 H           2.926166    2.947752   -2.718960 H         1 UNL        0.4130 ****
 56 O           7.443444   -1.286649   -1.135916 O         1 UNL       -0.7180 ****
 57 H           7.758767   -1.570056   -0.266194 H         1 UNL        0.4170 ****
 58 C          -4.147713   -1.207117    0.658829 C         1 UNL       -0.0294 ****
 59 H          -3.440712   -1.943302    1.062317 H         1 UNL        0.0002 ****
 60 H          -5.116964   -1.462306    1.108378 H         1 UNL        0.0002 ****
 61 C          -4.245623   -1.407890   -0.866099 C         1 UNL        0.0067 ****
 62 H          -3.258572   -1.270541   -1.323235 H         1 UNL        0.0041 ****
 63 H          -4.505698   -2.458069   -1.051238 H         1 UNL        0.0041 ****
 64 C          -5.244835   -0.497408   -1.605708 C         1 UNL       -0.0783 ****
 65 H          -5.196088   -0.734887   -2.678774 H         1 UNL        0.0079 ****
 66 H          -4.916843    0.547205   -1.518925 H         1 UNL        0.0079 ****
 67 C          -6.720162   -0.582207   -1.160271 C         1 UNL        0.2677 ****
 68 H          -6.772969   -0.328801   -0.091466 H         1 UNL       -0.0407 ****
 69 C          -7.564284    0.453757   -1.920066 C         1 UNL       -0.2183 ****
 70 H          -7.556411    0.249225   -2.998437 H         1 UNL        0.0433 ****
 71 H          -8.608345    0.438573   -1.586970 H         1 UNL        0.0433 ****
 72 H          -7.179529    1.469341   -1.771888 H         1 UNL        0.0433 ****
 73 C          -7.307736   -1.991229   -1.338835 C         1 UNL       -0.2167 ****
 74 H          -7.256700   -2.303329   -2.390160 H         1 UNL        0.0426 ****
 75 H          -8.360752   -2.017275   -1.036142 H         1 UNL        0.0426 ****
 76 H          -6.775664   -2.739901   -0.743074 H         1 UNL        0.0426 ****
@<TRIPOS>BOND
    1     1     2 1
    2     1     3 1
    3     1    11 1
    4     1    56 1
    5     3     4 1
    6     3     5 1
    7     3     6 1
    8     6     7 1
    9     6    14 1
   10     7     8 1
   11     7    20 1
   12     7    49 1
   13     8     9 1
   14     8    10 1
   15     8    11 1
   16    11    12 1
   17    11    13 1
   18    14    15 1
   19    14    16 1
   20    16    17 1
   21    16    18 1
   22    16    53 1
   23    18    19 1
   24    18    20 1
   25    18    29 1
   26    20    21 1
   27    20    22 1
   28    22    23 1
   29    22    24 1
   30    22    25 1
   31    25    26 1
   32    25    27 1
   33    25    28 1
   34    28    29 1
   35    28    37 1
   36    28    39 1
   37    29    30 1
   38    29    31 1
   39    31    32 1
   40    31    33 1
   41    31    34 1
   42    34    35 1
   43    34    36 1
   44    34    37 1
   45    37    38 1
   46    37    43 1
   47    39    40 1
   48    39    41 1
   49    39    42 1
   50    43    44 1
   51    43    45 1
   52    43    58 1
   53    45    46 1
   54    45    47 1
   55    45    48 1
   56    49    50 1
   57    49    51 1
   58    49    52 1
   59    53    54 1
   60    54    55 1
   61    56    57 1
   62    58    59 1
   63    58    60 1
   64    58    61 1
   65    61    62 1
   66    61    63 1
   67    61    64 1
   68    64    65 1
   69    64    66 1
   70    64    67 1
   71    67    68 1
   72    67    69 1
   73    67    73 1
   74    69    70 1
   75    69    71 1
   76    69    72 1
   77    73    74 1
   78    73    75 1
   79    73    76 1
@<TRIPOS>SUBSTRUCTURE
      1  UNL              1 ****               0 ****  ****  


