@<TRIPOS>MOLECULE
UNL
   76    79     1     0     1
SMALL
USER_CHARGES
@<TRIPOS>ATOM
  1 C           6.092861   -1.086673   -1.021408 C         1 UNL        0.3534 ****
  2 H           5.840003   -0.772949   -2.041643 H         1 UNL        0.0756 ****
  3 C           5.759759    0.058817   -0.052336 C         1 UNL       -0.2255 ****
  4 H           6.302939    0.961668   -0.348316 H         1 UNL        0.0860 ****
  5 H           6.137530   -0.224321    0.942747 H         1 UNL        0.0860 ****
  6 C           4.270386    0.341526    0.019318 C         1 UNL       -0.0596 ****
  7 C           3.354858   -0.856382    0.301837 C         1 UNL        0.0821 ****
  8 C           3.774567   -2.021672   -0.646879 C         1 UNL       -0.0257 ****
  9 H           3.462006   -1.761703   -1.667396 H         1 UNL        0.0139 ****
 10 H           3.222539   -2.927609   -0.374327 H         1 UNL        0.0139 ****
 11 C           5.279496   -2.331113   -0.665625 C         1 UNL       -0.1120 ****
 12 H           5.607889   -2.706273    0.314973 H         1 UNL        0.0356 ****
 13 H           5.489987   -3.124881   -1.391292 H         1 UNL        0.0356 ****
 14 C           3.818455    1.592608   -0.158529 C         1 UNL       -0.2397 ****
 15 H           4.532587    2.389518   -0.357671 H         1 UNL        0.1458 ****
 16 C           2.372829    1.995236   -0.108018 C         1 UNL        0.0469 ****
 17 H           2.263461    2.943657    0.433117 H         1 UNL        0.1216 ****
 18 C           1.481007    0.921214    0.540872 C         1 UNL       -0.0349 ****
 19 H           1.705543    0.978590    1.615111 H         1 UNL        0.0735 ****
 20 C           1.856458   -0.489366    0.012071 C         1 UNL        0.0219 ****
 21 H           1.764259   -0.430577   -1.082388 H         1 UNL        0.0477 ****
 22 C           0.859422   -1.573678    0.488879 C         1 UNL       -0.1110 ****
 23 H           1.019477   -1.788176    1.550345 H         1 UNL        0.0486 ****
 24 H           1.061320   -2.511701   -0.041019 H         1 UNL        0.0486 ****
 25 C          -0.625029   -1.206160    0.288179 C         1 UNL       -0.0871 ****
 26 H          -0.847781   -1.143671   -0.786341 H         1 UNL        0.0110 ****
 27 H          -1.242097   -2.018070    0.689765 H         1 UNL        0.0110 ****
 28 C          -0.970290    0.142924    0.948057 C         1 UNL        0.1736 ****
 29 C          -0.013847    1.200523    0.324737 C         1 UNL        0.0361 ****
 30 H          -0.180497    1.138811   -0.758964 H         1 UNL        0.0197 ****
 31 C          -0.589079    2.554143    0.774154 C         1 UNL       -0.0975 ****
 32 H          -0.307703    3.362160    0.093103 H         1 UNL        0.0322 ****
 33 H          -0.216338    2.827132    1.769701 H         1 UNL        0.0322 ****
 34 C          -2.124868    2.308241    0.803628 C         1 UNL       -0.0982 ****
 35 H          -2.546752    2.604546    1.769397 H         1 UNL        0.0303 ****
 36 H          -2.646652    2.903034    0.046125 H         1 UNL        0.0303 ****
 37 C          -2.339520    0.784904    0.535290 C         1 UNL        0.0447 ****
 38 H          -2.374391    0.667090   -0.558364 H         1 UNL        0.0016 ****
 39 C          -0.814719    0.044479    2.483072 C         1 UNL       -0.1948 ****
 40 H           0.225652   -0.104747    2.783870 H         1 UNL        0.0350 ****
 41 H          -1.170532    0.943550    2.992900 H         1 UNL        0.0350 ****
 42 H          -1.384376   -0.803126    2.875427 H         1 UNL        0.0350 ****
 43 C          -3.727134    0.264099    1.013180 C         1 UNL        0.0934 ****
 44 H          -4.430158    0.963488    0.535007 H         1 UNL       -0.0195 ****
 45 C          -4.019882    0.337000    2.524953 C         1 UNL       -0.1447 ****
 46 H          -3.538266   -0.476060    3.076844 H         1 UNL        0.0297 ****
 47 H          -5.096474    0.258813    2.707967 H         1 UNL        0.0297 ****
 48 H          -3.690676    1.281755    2.967131 H         1 UNL        0.0297 ****
 49 C           3.562192   -1.287593    1.779799 C         1 UNL       -0.1269 ****
 50 H           3.088999   -2.252911    1.982501 H         1 UNL        0.0335 ****
 51 H           4.621668   -1.391544    2.025648 H         1 UNL        0.0335 ****
 52 H           3.143147   -0.549351    2.470572 H         1 UNL        0.0335 ****
 53 O           1.847478    2.222207   -1.445157 O         1 UNL       -0.2308 ****
 54 O           2.509059    3.400627   -1.984762 O         1 UNL       -0.4246 ****
 55 H           3.088255    2.997345   -2.652489 H         1 UNL        0.4130 ****
 56 O           7.498271   -1.344662   -1.074031 O         1 UNL       -0.7180 ****
 57 H           7.789568   -1.654550   -0.204962 H         1 UNL        0.4170 ****
 58 C          -4.046316   -1.141627    0.454223 C         1 UNL       -0.0294 ****
 59 H          -3.740004   -1.180119   -0.599322 H         1 UNL        0.0002 ****
 60 H          -3.424675   -1.882006    0.973727 H         1 UNL        0.0002 ****
 61 C          -5.514237   -1.601762    0.569093 C         1 UNL        0.0067 ****
 62 H          -5.578806   -2.624333    0.175739 H         1 UNL        0.0041 ****
 63 H          -5.791221   -1.681562    1.627960 H         1 UNL        0.0041 ****
 64 C          -6.561976   -0.718543   -0.134912 C         1 UNL       -0.0783 ****
 65 H          -6.584533    0.270572    0.342298 H         1 UNL        0.0079 ****
 66 H          -7.555430   -1.155909    0.044249 H         1 UNL        0.0079 ****
 67 C          -6.389405   -0.520531   -1.655787 C         1 UNL        0.2677 ****
 68 H          -5.402865   -0.068887   -1.834655 H         1 UNL       -0.0407 ****
 69 C          -6.446842   -1.846534   -2.430984 C         1 UNL       -0.2183 ****
 70 H          -7.407085   -2.352394   -2.265620 H         1 UNL        0.0433 ****
 71 H          -6.343871   -1.674531   -3.508434 H         1 UNL        0.0433 ****
 72 H          -5.651259   -2.535922   -2.130427 H         1 UNL        0.0433 ****
 73 C          -7.446884    0.460486   -2.187030 C         1 UNL       -0.2167 ****
 74 H          -8.458821    0.060824   -2.041832 H         1 UNL        0.0426 ****
 75 H          -7.314395    0.647387   -3.258800 H         1 UNL        0.0426 ****
 76 H          -7.393193    1.425173   -1.669366 H         1 UNL        0.0426 ****
@<TRIPOS>BOND
    1     1     2 1
    2     1     3 1
    3     1    11 1
    4     1    56 1
    5     3     4 1
    6     3     5 1
    7     3     6 1
    8     6     7 1
    9     6    14 1
   10     7     8 1
   11     7    20 1
   12     7    49 1
   13     8     9 1
   14     8    10 1
   15     8    11 1
   16    11    12 1
   17    11    13 1
   18    14    15 1
   19    14    16 1
   20    16    17 1
   21    16    18 1
   22    16    53 1
   23    18    19 1
   24    18    20 1
   25    18    29 1
   26    20    21 1
   27    20    22 1
   28    22    23 1
   29    22    24 1
   30    22    25 1
   31    25    26 1
   32    25    27 1
   33    25    28 1
   34    28    29 1
   35    28    37 1
   36    28    39 1
   37    29    30 1
   38    29    31 1
   39    31    32 1
   40    31    33 1
   41    31    34 1
   42    34    35 1
   43    34    36 1
   44    34    37 1
   45    37    38 1
   46    37    43 1
   47    39    40 1
   48    39    41 1
   49    39    42 1
   50    43    44 1
   51    43    45 1
   52    43    58 1
   53    45    46 1
   54    45    47 1
   55    45    48 1
   56    49    50 1
   57    49    51 1
   58    49    52 1
   59    53    54 1
   60    54    55 1
   61    56    57 1
   62    58    59 1
   63    58    60 1
   64    58    61 1
   65    61    62 1
   66    61    63 1
   67    61    64 1
   68    64    65 1
   69    64    66 1
   70    64    67 1
   71    67    68 1
   72    67    69 1
   73    67    73 1
   74    69    70 1
   75    69    71 1
   76    69    72 1
   77    73    74 1
   78    73    75 1
   79    73    76 1
@<TRIPOS>SUBSTRUCTURE
      1  UNL              1 ****               0 ****  ****  


