@<TRIPOS>MOLECULE
UNL
   76    79     1     0     1
SMALL
USER_CHARGES
@<TRIPOS>ATOM
  1 C           6.689591   -0.507748   -0.553284 C         1 UNL        0.3534 ****
  2 H           6.574371    0.058416   -1.485715 H         1 UNL        0.0756 ****
  3 C           6.055244    0.292284    0.595528 C         1 UNL       -0.2255 ****
  4 H           6.520846    1.280826    0.657170 H         1 UNL        0.0860 ****
  5 H           6.293763   -0.227583    1.536785 H         1 UNL        0.0860 ****
  6 C           4.551293    0.428654    0.444621 C         1 UNL       -0.0596 ****
  7 C           3.761382   -0.866583    0.218914 C         1 UNL        0.0821 ****
  8 C           4.479467   -1.684425   -0.898850 C         1 UNL       -0.0257 ****
  9 H           4.312736   -1.173918   -1.857138 H         1 UNL        0.0139 ****
 10 H           4.008989   -2.669750   -0.986015 H         1 UNL        0.0139 ****
 11 C           5.993024   -1.860415   -0.701127 C         1 UNL       -0.1120 ****
 12 H           6.196541   -2.468497    0.192735 H         1 UNL        0.0356 ****
 13 H           6.422049   -2.401115   -1.552321 H         1 UNL        0.0356 ****
 14 C           3.979824    1.640878    0.514725 C         1 UNL       -0.2397 ****
 15 H           4.609634    2.513990    0.675166 H         1 UNL        0.1458 ****
 16 C           2.507141    1.901653    0.382218 C         1 UNL        0.0469 ****
 17 H           2.187789    2.648271    1.120325 H         1 UNL        0.1216 ****
 18 C           1.661879    0.624090    0.536117 C         1 UNL       -0.0349 ****
 19 H           1.686985    0.394275    1.610720 H         1 UNL        0.0735 ****
 20 C           2.299168   -0.548578   -0.254783 C         1 UNL        0.0219 ****
 21 H           2.386296   -0.194966   -1.292658 H         1 UNL        0.0477 ****
 22 C           1.380400   -1.793142   -0.278958 C         1 UNL       -0.1110 ****
 23 H           1.385478   -2.280083    0.701546 H         1 UNL        0.0486 ****
 24 H           1.783581   -2.530726   -0.982478 H         1 UNL        0.0486 ****
 25 C          -0.083822   -1.498731   -0.664190 C         1 UNL       -0.0871 ****
 26 H          -0.128644   -1.153072   -1.706801 H         1 UNL        0.0110 ****
 27 H          -0.644776   -2.437647   -0.623091 H         1 UNL        0.0110 ****
 28 C          -0.707170   -0.415130    0.240324 C         1 UNL        0.1736 ****
 29 C           0.202546    0.838356    0.106175 C         1 UNL        0.0361 ****
 30 H           0.228363    1.062194   -0.969180 H         1 UNL        0.0197 ****
 31 C          -0.599909    1.969463    0.761974 C         1 UNL       -0.0975 ****
 32 H          -0.297117    2.953526    0.393575 H         1 UNL        0.0322 ****
 33 H          -0.454646    1.973455    1.849872 H         1 UNL        0.0322 ****
 34 C          -2.070542    1.627818    0.397366 C         1 UNL       -0.0982 ****
 35 H          -2.710834    1.651994    1.287450 H         1 UNL        0.0303 ****
 36 H          -2.482911    2.363282   -0.299379 H         1 UNL        0.0303 ****
 37 C          -2.072399    0.193948   -0.236791 C         1 UNL        0.0447 ****
 38 H          -1.988751    0.306836   -1.329328 H         1 UNL        0.0016 ****
 39 C          -0.824869   -0.914005    1.698769 C         1 UNL       -0.1948 ****
 40 H           0.147571   -1.143308    2.142241 H         1 UNL        0.0350 ****
 41 H          -1.307013   -0.174470    2.345179 H         1 UNL        0.0350 ****
 42 H          -1.424241   -1.829064    1.748717 H         1 UNL        0.0350 ****
 43 C          -3.392884   -0.574001    0.032373 C         1 UNL        0.0934 ****
 44 H          -3.528962   -0.635783    1.123061 H         1 UNL       -0.0195 ****
 45 C          -3.387511   -2.007461   -0.527759 C         1 UNL       -0.1447 ****
 46 H          -3.166526   -2.006808   -1.602623 H         1 UNL        0.0297 ****
 47 H          -4.359515   -2.490348   -0.390192 H         1 UNL        0.0297 ****
 48 H          -2.646114   -2.640889   -0.035701 H         1 UNL        0.0297 ****
 49 C           3.769903   -1.676489    1.544530 C         1 UNL       -0.1269 ****
 50 H           3.396146   -2.693340    1.392139 H         1 UNL        0.0335 ****
 51 H           4.777271   -1.763614    1.958502 H         1 UNL        0.0335 ****
 52 H           3.150037   -1.194651    2.307033 H         1 UNL        0.0335 ****
 53 O           2.191612    2.455504   -0.925051 O         1 UNL       -0.2308 ****
 54 O           2.774107    3.787504   -0.991474 O         1 UNL       -0.4246 ****
 55 H           3.502016    3.639258   -1.617633 H         1 UNL        0.4130 ****
 56 O           8.105050   -0.632558   -0.393711 O         1 UNL       -0.7180 ****
 57 H           8.282833   -1.149540    0.404590 H         1 UNL        0.4170 ****
 58 C          -4.597368    0.219482   -0.532990 C         1 UNL       -0.0294 ****
 59 H          -4.513144    1.269758   -0.231881 H         1 UNL        0.0002 ****
 60 H          -4.538332    0.213874   -1.632381 H         1 UNL        0.0002 ****
 61 C          -5.984260   -0.280880   -0.095950 C         1 UNL        0.0067 ****
 62 H          -6.145497   -1.305705   -0.448970 H         1 UNL        0.0041 ****
 63 H          -6.014611   -0.322216    1.001459 H         1 UNL        0.0041 ****
 64 C          -7.115175    0.621813   -0.615834 C         1 UNL       -0.0783 ****
 65 H          -7.043571    0.677165   -1.711812 H         1 UNL        0.0079 ****
 66 H          -6.944825    1.644788   -0.250254 H         1 UNL        0.0079 ****
 67 C          -8.558427    0.208217   -0.244784 C         1 UNL        0.2677 ****
 68 H          -9.214269    0.968550   -0.694289 H         1 UNL       -0.0407 ****
 69 C          -8.961493   -1.147596   -0.848277 C         1 UNL       -0.2183 ****
 70 H          -8.393903   -1.973367   -0.403887 H         1 UNL        0.0433 ****
 71 H         -10.024168   -1.351395   -0.673728 H         1 UNL        0.0433 ****
 72 H          -8.791014   -1.169002   -1.931136 H         1 UNL        0.0433 ****
 73 C          -8.810974    0.234490    1.271856 C         1 UNL       -0.2167 ****
 74 H          -8.237732   -0.542459    1.790760 H         1 UNL        0.0426 ****
 75 H          -9.870283    0.061608    1.493788 H         1 UNL        0.0426 ****
 76 H          -8.532411    1.201899    1.706191 H         1 UNL        0.0426 ****
@<TRIPOS>BOND
    1     1     2 1
    2     1     3 1
    3     1    11 1
    4     1    56 1
    5     3     4 1
    6     3     5 1
    7     3     6 1
    8     6     7 1
    9     6    14 1
   10     7     8 1
   11     7    20 1
   12     7    49 1
   13     8     9 1
   14     8    10 1
   15     8    11 1
   16    11    12 1
   17    11    13 1
   18    14    15 1
   19    14    16 1
   20    16    17 1
   21    16    18 1
   22    16    53 1
   23    18    19 1
   24    18    20 1
   25    18    29 1
   26    20    21 1
   27    20    22 1
   28    22    23 1
   29    22    24 1
   30    22    25 1
   31    25    26 1
   32    25    27 1
   33    25    28 1
   34    28    29 1
   35    28    37 1
   36    28    39 1
   37    29    30 1
   38    29    31 1
   39    31    32 1
   40    31    33 1
   41    31    34 1
   42    34    35 1
   43    34    36 1
   44    34    37 1
   45    37    38 1
   46    37    43 1
   47    39    40 1
   48    39    41 1
   49    39    42 1
   50    43    44 1
   51    43    45 1
   52    43    58 1
   53    45    46 1
   54    45    47 1
   55    45    48 1
   56    49    50 1
   57    49    51 1
   58    49    52 1
   59    53    54 1
   60    54    55 1
   61    56    57 1
   62    58    59 1
   63    58    60 1
   64    58    61 1
   65    61    62 1
   66    61    63 1
   67    61    64 1
   68    64    65 1
   69    64    66 1
   70    64    67 1
   71    67    68 1
   72    67    69 1
   73    67    73 1
   74    69    70 1
   75    69    71 1
   76    69    72 1
   77    73    74 1
   78    73    75 1
   79    73    76 1
@<TRIPOS>SUBSTRUCTURE
      1  UNL              1 ****               0 ****  ****  


