@<TRIPOS>MOLECULE
UNL
   76    79     1     0     1
SMALL
USER_CHARGES
@<TRIPOS>ATOM
  1 C           6.747786   -0.469422   -0.477781 C         1 UNL        0.3534 ****
  2 H           6.663413    0.107025   -1.406851 H         1 UNL        0.0756 ****
  3 C           6.087935    0.325530    0.660836 C         1 UNL       -0.2255 ****
  4 H           6.558049    1.310413    0.742544 H         1 UNL        0.0860 ****
  5 H           6.296121   -0.203893    1.603820 H         1 UNL        0.0860 ****
  6 C           4.590998    0.471576    0.466870 C         1 UNL       -0.0596 ****
  7 C           3.796110   -0.814190    0.213144 C         1 UNL        0.0821 ****
  8 C           4.537899   -1.628436   -0.892007 C         1 UNL       -0.0257 ****
  9 H           4.397356   -1.110577   -1.850340 H         1 UNL        0.0139 ****
 10 H           4.064828   -2.610719   -0.996424 H         1 UNL        0.0139 ****
 11 C           6.045073   -1.815047   -0.657139 C         1 UNL       -0.1120 ****
 12 H           6.221718   -2.433455    0.235503 H         1 UNL        0.0356 ****
 13 H           6.492314   -2.350280   -1.502415 H         1 UNL        0.0356 ****
 14 C           4.026322    1.687713    0.514414 C         1 UNL       -0.2397 ****
 15 H           4.654087    2.564809    0.661209 H         1 UNL        0.1458 ****
 16 C           2.563536    1.951870    0.312846 C         1 UNL        0.0469 ****
 17 H           2.223611    2.758744    0.971310 H         1 UNL        0.1216 ****
 18 C           1.706799    0.686393    0.510082 C         1 UNL       -0.0349 ****
 19 H           1.756446    0.465145    1.586499 H         1 UNL        0.0735 ****
 20 C           2.349492   -0.476712   -0.294410 C         1 UNL        0.0219 ****
 21 H           2.469248   -0.086287   -1.315738 H         1 UNL        0.0477 ****
 22 C           1.436463   -1.719950   -0.401359 C         1 UNL       -0.1110 ****
 23 H           1.431873   -2.270865    0.544520 H         1 UNL        0.0486 ****
 24 H           1.849133   -2.408651   -1.147626 H         1 UNL        0.0486 ****
 25 C          -0.022416   -1.402292   -0.781921 C         1 UNL       -0.0871 ****
 26 H          -0.058108   -0.986864   -1.799113 H         1 UNL        0.0110 ****
 27 H          -0.583867   -2.341191   -0.808312 H         1 UNL        0.0110 ****
 28 C          -0.649468   -0.382933    0.188910 C         1 UNL        0.1736 ****
 29 C           0.236391    0.895888    0.118815 C         1 UNL        0.0361 ****
 30 H           0.237090    1.192300   -0.939811 H         1 UNL        0.0197 ****
 31 C          -0.583130    1.953604    0.873243 C         1 UNL       -0.0975 ****
 32 H          -0.306826    2.970199    0.587735 H         1 UNL        0.0322 ****
 33 H          -0.426483    1.864772    1.956122 H         1 UNL        0.0322 ****
 34 C          -2.049876    1.614414    0.493291 C         1 UNL       -0.0982 ****
 35 H          -2.688180    1.574295    1.384371 H         1 UNL        0.0303 ****
 36 H          -2.473506    2.386487   -0.155727 H         1 UNL        0.0303 ****
 37 C          -2.033284    0.223961   -0.230622 C         1 UNL        0.0447 ****
 38 H          -1.968917    0.406587   -1.314918 H         1 UNL        0.0016 ****
 39 C          -0.736362   -0.967417    1.618413 C         1 UNL       -0.1948 ****
 40 H           0.248141   -1.168447    2.048576 H         1 UNL        0.0350 ****
 41 H          -1.255256   -0.292070    2.304964 H         1 UNL        0.0350 ****
 42 H          -1.286779   -1.914248    1.617230 H         1 UNL        0.0350 ****
 43 C          -3.334657   -0.585712    0.009540 C         1 UNL        0.0934 ****
 44 H          -3.455001   -0.712926    1.096439 H         1 UNL       -0.0195 ****
 45 C          -3.311826   -1.984530   -0.632064 C         1 UNL       -0.1447 ****
 46 H          -3.100917   -1.919095   -1.706940 H         1 UNL        0.0297 ****
 47 H          -4.274953   -2.490021   -0.514123 H         1 UNL        0.0297 ****
 48 H          -2.556297   -2.633086   -0.183063 H         1 UNL        0.0297 ****
 49 C           3.764082   -1.634846    1.531735 C         1 UNL       -0.1269 ****
 50 H           3.377007   -2.643860    1.361977 H         1 UNL        0.0335 ****
 51 H           4.761222   -1.742983    1.965286 H         1 UNL        0.0335 ****
 52 H           3.136330   -1.150285    2.285815 H         1 UNL        0.0335 ****
 53 O           2.507085    2.472119   -1.049437 O         1 UNL       -0.2308 ****
 54 O           1.403379    3.429565   -1.163678 O         1 UNL       -0.4246 ****
 55 H           1.899837    4.214723   -1.445411 H         1 UNL        0.4130 ****
 56 O           8.157015   -0.607850   -0.278170 O         1 UNL       -0.7180 ****
 57 H           8.306669   -1.142374    0.514322 H         1 UNL        0.4170 ****
 58 C          -4.561195    0.215726   -0.494220 C         1 UNL       -0.0294 ****
 59 H          -4.489929    1.249619   -0.137991 H         1 UNL        0.0002 ****
 60 H          -4.518994    0.270381   -1.593042 H         1 UNL        0.0002 ****
 61 C          -5.932558   -0.331970   -0.064994 C         1 UNL        0.0067 ****
 62 H          -6.080705   -1.339961   -0.468620 H         1 UNL        0.0041 ****
 63 H          -5.946199   -0.430717    1.029074 H         1 UNL        0.0041 ****
 64 C          -7.086836    0.575333   -0.521597 C         1 UNL       -0.0783 ****
 65 H          -7.031708    0.689578   -1.613976 H         1 UNL        0.0079 ****
 66 H          -6.929779    1.580729   -0.104802 H         1 UNL        0.0079 ****
 67 C          -8.517109    0.115906   -0.154083 C         1 UNL        0.2677 ****
 68 H          -9.192806    0.886747   -0.553579 H         1 UNL       -0.0407 ****
 69 C          -8.904528   -1.213101   -0.823842 C         1 UNL       -0.2183 ****
 70 H          -8.316493   -2.050826   -0.431483 H         1 UNL        0.0433 ****
 71 H          -9.960988   -1.445273   -0.646893 H         1 UNL        0.0433 ****
 72 H          -8.748438   -1.173763   -1.908360 H         1 UNL        0.0433 ****
 73 C          -8.748468    0.056688    1.364991 C         1 UNL       -0.2167 ****
 74 H          -8.153853   -0.735827    1.833857 H         1 UNL        0.0426 ****
 75 H          -9.801215   -0.147625    1.591468 H         1 UNL        0.0426 ****
 76 H          -8.481164    1.004681    1.846677 H         1 UNL        0.0426 ****
@<TRIPOS>BOND
    1     1     2 1
    2     1     3 1
    3     1    11 1
    4     1    56 1
    5     3     4 1
    6     3     5 1
    7     3     6 1
    8     6     7 1
    9     6    14 1
   10     7     8 1
   11     7    20 1
   12     7    49 1
   13     8     9 1
   14     8    10 1
   15     8    11 1
   16    11    12 1
   17    11    13 1
   18    14    15 1
   19    14    16 1
   20    16    17 1
   21    16    18 1
   22    16    53 1
   23    18    19 1
   24    18    20 1
   25    18    29 1
   26    20    21 1
   27    20    22 1
   28    22    23 1
   29    22    24 1
   30    22    25 1
   31    25    26 1
   32    25    27 1
   33    25    28 1
   34    28    29 1
   35    28    37 1
   36    28    39 1
   37    29    30 1
   38    29    31 1
   39    31    32 1
   40    31    33 1
   41    31    34 1
   42    34    35 1
   43    34    36 1
   44    34    37 1
   45    37    38 1
   46    37    43 1
   47    39    40 1
   48    39    41 1
   49    39    42 1
   50    43    44 1
   51    43    45 1
   52    43    58 1
   53    45    46 1
   54    45    47 1
   55    45    48 1
   56    49    50 1
   57    49    51 1
   58    49    52 1
   59    53    54 1
   60    54    55 1
   61    56    57 1
   62    58    59 1
   63    58    60 1
   64    58    61 1
   65    61    62 1
   66    61    63 1
   67    61    64 1
   68    64    65 1
   69    64    66 1
   70    64    67 1
   71    67    68 1
   72    67    69 1
   73    67    73 1
   74    69    70 1
   75    69    71 1
   76    69    72 1
   77    73    74 1
   78    73    75 1
   79    73    76 1
@<TRIPOS>SUBSTRUCTURE
      1  UNL              1 ****               0 ****  ****  


