@<TRIPOS>MOLECULE
UNL
   76    79     1     0     1
SMALL
USER_CHARGES
@<TRIPOS>ATOM
  1 C          -6.200434    0.464534    1.293110 C         1 UNL        0.3534 ****
  2 H          -5.823036    1.306814    1.885860 H         1 UNL        0.0756 ****
  3 C          -5.752766    0.643699   -0.166295 C         1 UNL       -0.2255 ****
  4 H          -6.112259    1.604889   -0.546663 H         1 UNL        0.0860 ****
  5 H          -6.246736   -0.137085   -0.765814 H         1 UNL        0.0860 ****
  6 C          -4.246745    0.545784   -0.325981 C         1 UNL       -0.0596 ****
  7 C          -3.569844   -0.693367    0.273171 C         1 UNL        0.0821 ****
  8 C          -4.106942   -0.884649    1.725337 C         1 UNL       -0.0257 ****
  9 H          -3.679368   -0.092924    2.355486 H         1 UNL        0.0139 ****
 10 H          -3.737057   -1.834461    2.126435 H         1 UNL        0.0139 ****
 11 C          -5.636810   -0.838003    1.861132 C         1 UNL       -0.1120 ****
 12 H          -6.096404   -1.687569    1.334667 H         1 UNL        0.0356 ****
 13 H          -5.922661   -0.930770    2.915001 H         1 UNL        0.0356 ****
 14 C          -3.578592    1.516015   -0.968833 C         1 UNL       -0.2397 ****
 15 H          -4.131399    2.366116   -1.364364 H         1 UNL        0.1458 ****
 16 C          -2.093660    1.530057   -1.190000 C         1 UNL        0.0469 ****
 17 H          -1.866056    1.875134   -2.206535 H         1 UNL        0.1216 ****
 18 C          -1.445340    0.154499   -0.951104 C         1 UNL       -0.0349 ****
 19 H          -1.731783   -0.450231   -1.823142 H         1 UNL        0.0735 ****
 20 C          -2.013558   -0.498879    0.336719 C         1 UNL        0.0219 ****
 21 H          -1.830892    0.226346    1.143255 H         1 UNL        0.0477 ****
 22 C          -1.250990   -1.791784    0.712721 C         1 UNL       -0.1110 ****
 23 H          -1.526407   -2.599974    0.027631 H         1 UNL        0.0486 ****
 24 H          -1.564733   -2.123330    1.709306 H         1 UNL        0.0486 ****
 25 C           0.285374   -1.653599    0.703524 C         1 UNL       -0.0871 ****
 26 H           0.598383   -0.960580    1.497430 H         1 UNL        0.0110 ****
 27 H           0.720072   -2.627599    0.950259 H         1 UNL        0.0110 ****
 28 C           0.802872   -1.120688   -0.648219 C         1 UNL        0.1736 ****
 29 C           0.087120    0.238498   -0.884351 C         1 UNL        0.0361 ****
 30 H           0.322769    0.845124    0.000803 H         1 UNL        0.0197 ****
 31 C           0.843294    0.877843   -2.057707 C         1 UNL       -0.0975 ****
 32 H           0.751212    1.967467   -2.056552 H         1 UNL        0.0322 ****
 33 H           0.450001    0.522457   -3.018815 H         1 UNL        0.0322 ****
 34 C           2.308954    0.404906   -1.848794 C         1 UNL       -0.0982 ****
 35 H           2.703836   -0.051677   -2.764120 H         1 UNL        0.0303 ****
 36 H           2.971122    1.244009   -1.613799 H         1 UNL        0.0303 ****
 37 C           2.295301   -0.639865   -0.684214 C         1 UNL        0.0447 ****
 38 H           2.454192   -0.097846    0.259518 H         1 UNL        0.0016 ****
 39 C           0.540710   -2.142410   -1.777683 C         1 UNL       -0.1948 ****
 40 H          -0.524101   -2.342074   -1.923068 H         1 UNL        0.0350 ****
 41 H           0.937963   -1.800910   -2.738308 H         1 UNL        0.0350 ****
 42 H           1.018630   -3.101218   -1.549718 H         1 UNL        0.0350 ****
 43 C           3.431117   -1.684928   -0.812703 C         1 UNL        0.0934 ****
 44 H           3.276124   -2.222675   -1.759586 H         1 UNL       -0.0195 ****
 45 C           3.438318   -2.736769    0.312803 C         1 UNL       -0.1447 ****
 46 H           3.419804   -2.273863    1.305813 H         1 UNL        0.0297 ****
 47 H           4.341501   -3.355605    0.252364 H         1 UNL        0.0297 ****
 48 H           2.579869   -3.410367    0.249066 H         1 UNL        0.0297 ****
 49 C          -3.957626   -1.923719   -0.592393 C         1 UNL       -0.1269 ****
 50 H          -3.671905   -2.859882   -0.103744 H         1 UNL        0.0335 ****
 51 H          -5.034730   -1.970084   -0.769688 H         1 UNL        0.0335 ****
 52 H          -3.472314   -1.887165   -1.572661 H         1 UNL        0.0335 ****
 53 O          -1.440600    2.461861   -0.284094 O         1 UNL       -0.2308 ****
 54 O          -1.848543    3.805832   -0.664946 O         1 UNL       -0.4246 ****
 55 H          -2.435070    4.036883    0.074329 H         1 UNL        0.4130 ****
 56 O          -7.621304    0.553307    1.426251 O         1 UNL       -0.7180 ****
 57 H          -8.024635   -0.182243    0.944118 H         1 UNL        0.4170 ****
 58 C           4.828205   -1.020079   -0.939151 C         1 UNL       -0.0294 ****
 59 H           5.560498   -1.820491   -1.118307 H         1 UNL        0.0002 ****
 60 H           4.851483   -0.390597   -1.837473 H         1 UNL        0.0002 ****
 61 C           5.305487   -0.183397    0.259838 C         1 UNL        0.0067 ****
 62 H           4.607158    0.644337    0.433479 H         1 UNL        0.0041 ****
 63 H           5.289837   -0.797891    1.168069 H         1 UNL        0.0041 ****
 64 C           6.721124    0.375503    0.040501 C         1 UNL       -0.0783 ****
 65 H           6.725859    0.965922   -0.887304 H         1 UNL        0.0079 ****
 66 H           7.407022   -0.466232   -0.134164 H         1 UNL        0.0079 ****
 67 C           7.305077    1.250217    1.174334 C         1 UNL        0.2677 ****
 68 H           8.310973    1.544410    0.839678 H         1 UNL       -0.0407 ****
 69 C           6.506883    2.546008    1.394799 C         1 UNL       -0.2183 ****
 70 H           5.505182    2.342409    1.790503 H         1 UNL        0.0433 ****
 71 H           7.014788    3.199153    2.113630 H         1 UNL        0.0433 ****
 72 H           6.389351    3.106378    0.459816 H         1 UNL        0.0433 ****
 73 C           7.476695    0.476386    2.492042 C         1 UNL       -0.2167 ****
 74 H           6.509442    0.200932    2.927943 H         1 UNL        0.0426 ****
 75 H           8.007930    1.083284    3.234160 H         1 UNL        0.0426 ****
 76 H           8.050778   -0.445612    2.341882 H         1 UNL        0.0426 ****
@<TRIPOS>BOND
    1     1     2 1
    2     1     3 1
    3     1    11 1
    4     1    56 1
    5     3     4 1
    6     3     5 1
    7     3     6 1
    8     6     7 1
    9     6    14 1
   10     7     8 1
   11     7    20 1
   12     7    49 1
   13     8     9 1
   14     8    10 1
   15     8    11 1
   16    11    12 1
   17    11    13 1
   18    14    15 1
   19    14    16 1
   20    16    17 1
   21    16    18 1
   22    16    53 1
   23    18    19 1
   24    18    20 1
   25    18    29 1
   26    20    21 1
   27    20    22 1
   28    22    23 1
   29    22    24 1
   30    22    25 1
   31    25    26 1
   32    25    27 1
   33    25    28 1
   34    28    29 1
   35    28    37 1
   36    28    39 1
   37    29    30 1
   38    29    31 1
   39    31    32 1
   40    31    33 1
   41    31    34 1
   42    34    35 1
   43    34    36 1
   44    34    37 1
   45    37    38 1
   46    37    43 1
   47    39    40 1
   48    39    41 1
   49    39    42 1
   50    43    44 1
   51    43    45 1
   52    43    58 1
   53    45    46 1
   54    45    47 1
   55    45    48 1
   56    49    50 1
   57    49    51 1
   58    49    52 1
   59    53    54 1
   60    54    55 1
   61    56    57 1
   62    58    59 1
   63    58    60 1
   64    58    61 1
   65    61    62 1
   66    61    63 1
   67    61    64 1
   68    64    65 1
   69    64    66 1
   70    64    67 1
   71    67    68 1
   72    67    69 1
   73    67    73 1
   74    69    70 1
   75    69    71 1
   76    69    72 1
   77    73    74 1
   78    73    75 1
   79    73    76 1
@<TRIPOS>SUBSTRUCTURE
      1  UNL              1 ****               0 ****  ****  


