@<TRIPOS>MOLECULE
UNL
   76    79     1     0     1
SMALL
USER_CHARGES
@<TRIPOS>ATOM
  1 C           5.590557    1.835869    0.102981 C         1 UNL        0.3534 ****
  2 H           5.295112    2.170892    1.104847 H         1 UNL        0.0756 ****
  3 C           5.446137    0.307645    0.027195 C         1 UNL       -0.2255 ****
  4 H           6.052709   -0.159090    0.809509 H         1 UNL        0.0860 ****
  5 H           5.867266   -0.020735   -0.936089 H         1 UNL        0.0860 ****
  6 C           4.001818   -0.143926    0.142905 C         1 UNL       -0.0596 ****
  7 C           2.994958    0.518014   -0.806327 C         1 UNL        0.0821 ****
  8 C           3.224925    2.060381   -0.758362 C         1 UNL       -0.0257 ****
  9 H           2.865204    2.430310    0.211422 H         1 UNL        0.0139 ****
 10 H           2.607173    2.543045   -1.523325 H         1 UNL        0.0139 ****
 11 C           4.686010    2.502535   -0.933384 C         1 UNL       -0.1120 ****
 12 H           5.047003    2.248869   -1.941092 H         1 UNL        0.0356 ****
 13 H           4.762129    3.591610   -0.838119 H         1 UNL        0.0356 ****
 14 C           3.664877   -1.081090    1.042514 C         1 UNL       -0.2397 ****
 15 H           4.438126   -1.501548    1.682831 H         1 UNL        0.1458 ****
 16 C           2.274573   -1.609477    1.248064 C         1 UNL        0.0469 ****
 17 H           2.301000   -2.697237    1.390739 H         1 UNL        0.1216 ****
 18 C           1.330191   -1.261582    0.083113 C         1 UNL       -0.0349 ****
 19 H           1.637882   -1.924755   -0.737309 H         1 UNL        0.0735 ****
 20 C           1.523416    0.216479   -0.351068 C         1 UNL        0.0219 ****
 21 H           1.357101    0.816579    0.555603 H         1 UNL        0.0477 ****
 22 C           0.461142    0.662935   -1.385391 C         1 UNL       -0.1110 ****
 23 H           0.675382    0.213588   -2.360269 H         1 UNL        0.0486 ****
 24 H           0.529781    1.746956   -1.532223 H         1 UNL        0.0486 ****
 25 C          -0.989461    0.310706   -0.997534 C         1 UNL       -0.0871 ****
 26 H          -1.277468    0.879078   -0.102337 H         1 UNL        0.0110 ****
 27 H          -1.655362    0.635912   -1.805573 H         1 UNL        0.0110 ****
 28 C          -1.150328   -1.193992   -0.706909 C         1 UNL        0.1736 ****
 29 C          -0.141231   -1.537724    0.426974 C         1 UNL        0.0361 ****
 30 H          -0.391908   -0.859799    1.253722 H         1 UNL        0.0197 ****
 31 C          -0.544105   -2.948939    0.887035 C         1 UNL       -0.0975 ****
 32 H          -0.234904   -3.144540    1.917593 H         1 UNL        0.0322 ****
 33 H          -0.072854   -3.715048    0.258046 H         1 UNL        0.0322 ****
 34 C          -2.090470   -2.963882    0.716371 C         1 UNL       -0.0982 ****
 35 H          -2.406954   -3.827890    0.123340 H         1 UNL        0.0303 ****
 36 H          -2.605353   -3.048202    1.679511 H         1 UNL        0.0303 ****
 37 C          -2.475388   -1.621856    0.014841 C         1 UNL        0.0447 ****
 38 H          -2.592965   -0.885653    0.821382 H         1 UNL        0.0016 ****
 39 C          -0.889889   -2.017573   -1.989433 C         1 UNL       -0.1948 ****
 40 H           0.152570   -1.958503   -2.313224 H         1 UNL        0.0350 ****
 41 H          -1.124315   -3.076597   -1.854973 H         1 UNL        0.0350 ****
 42 H          -1.501353   -1.647974   -2.817852 H         1 UNL        0.0350 ****
 43 C          -3.868344   -1.675714   -0.676972 C         1 UNL        0.0934 ****
 44 H          -4.534626   -2.049832    0.117816 H         1 UNL       -0.0195 ****
 45 C          -4.023670   -2.660737   -1.853502 C         1 UNL       -0.1447 ****
 46 H          -3.580256   -2.273558   -2.775531 H         1 UNL        0.0297 ****
 47 H          -5.088095   -2.828577   -2.053359 H         1 UNL        0.0297 ****
 48 H          -3.574009   -3.637012   -1.650860 H         1 UNL        0.0297 ****
 49 C           3.267089   -0.004763   -2.243662 C         1 UNL       -0.1269 ****
 50 H           2.715117    0.575356   -2.989073 H         1 UNL        0.0335 ****
 51 H           4.325977    0.062426   -2.504522 H         1 UNL        0.0335 ****
 52 H           2.977500   -1.055325   -2.344523 H         1 UNL        0.0335 ****
 53 O           1.677411   -1.051910    2.451349 O         1 UNL       -0.2308 ****
 54 O           2.409760   -1.580505    3.592420 O         1 UNL       -0.4246 ****
 55 H           2.894129   -0.789975    3.882901 H         1 UNL        0.4130 ****
 56 O           6.955498    2.245603   -0.013479 O         1 UNL       -0.7180 ****
 57 H           7.278305    2.002786   -0.892686 H         1 UNL        0.4170 ****
 58 C          -4.438821   -0.299058   -1.093785 C         1 UNL       -0.0294 ****
 59 H          -3.796838    0.151770   -1.862298 H         1 UNL        0.0002 ****
 60 H          -5.404676   -0.480510   -1.587083 H         1 UNL        0.0002 ****
 61 C          -4.670426    0.711843    0.040257 C         1 UNL        0.0067 ****
 62 H          -5.265993    0.229024    0.827036 H         1 UNL        0.0041 ****
 63 H          -3.714927    0.986490    0.500451 H         1 UNL        0.0041 ****
 64 C          -5.385798    1.980716   -0.451882 C         1 UNL       -0.0783 ****
 65 H          -6.341668    1.689281   -0.910845 H         1 UNL        0.0079 ****
 66 H          -4.788302    2.429755   -1.258672 H         1 UNL        0.0079 ****
 67 C          -5.668715    3.072091    0.606828 C         1 UNL        0.2677 ****
 68 H          -6.183151    3.884166    0.071838 H         1 UNL       -0.0407 ****
 69 C          -6.618685    2.589495    1.715535 C         1 UNL       -0.2183 ****
 70 H          -6.153245    1.817714    2.339310 H         1 UNL        0.0433 ****
 71 H          -6.899292    3.417678    2.376290 H         1 UNL        0.0433 ****
 72 H          -7.540748    2.169801    1.296267 H         1 UNL        0.0433 ****
 73 C          -4.382764    3.669046    1.202430 C         1 UNL       -0.2167 ****
 74 H          -3.837688    2.935055    1.807073 H         1 UNL        0.0426 ****
 75 H          -4.613365    4.520396    1.853024 H         1 UNL        0.0426 ****
 76 H          -3.706082    4.023676    0.415976 H         1 UNL        0.0426 ****
@<TRIPOS>BOND
    1     1     2 1
    2     1     3 1
    3     1    11 1
    4     1    56 1
    5     3     4 1
    6     3     5 1
    7     3     6 1
    8     6     7 1
    9     6    14 1
   10     7     8 1
   11     7    20 1
   12     7    49 1
   13     8     9 1
   14     8    10 1
   15     8    11 1
   16    11    12 1
   17    11    13 1
   18    14    15 1
   19    14    16 1
   20    16    17 1
   21    16    18 1
   22    16    53 1
   23    18    19 1
   24    18    20 1
   25    18    29 1
   26    20    21 1
   27    20    22 1
   28    22    23 1
   29    22    24 1
   30    22    25 1
   31    25    26 1
   32    25    27 1
   33    25    28 1
   34    28    29 1
   35    28    37 1
   36    28    39 1
   37    29    30 1
   38    29    31 1
   39    31    32 1
   40    31    33 1
   41    31    34 1
   42    34    35 1
   43    34    36 1
   44    34    37 1
   45    37    38 1
   46    37    43 1
   47    39    40 1
   48    39    41 1
   49    39    42 1
   50    43    44 1
   51    43    45 1
   52    43    58 1
   53    45    46 1
   54    45    47 1
   55    45    48 1
   56    49    50 1
   57    49    51 1
   58    49    52 1
   59    53    54 1
   60    54    55 1
   61    56    57 1
   62    58    59 1
   63    58    60 1
   64    58    61 1
   65    61    62 1
   66    61    63 1
   67    61    64 1
   68    64    65 1
   69    64    66 1
   70    64    67 1
   71    67    68 1
   72    67    69 1
   73    67    73 1
   74    69    70 1
   75    69    71 1
   76    69    72 1
   77    73    74 1
   78    73    75 1
   79    73    76 1
@<TRIPOS>SUBSTRUCTURE
      1  UNL              1 ****               0 ****  ****  


