@<TRIPOS>MOLECULE
UNL
   76    79     1     0     1
SMALL
USER_CHARGES
@<TRIPOS>ATOM
  1 C           6.351139   -0.620649    1.123577 C         1 UNL        0.3534 ****
  2 H           5.992713   -1.465481    1.723875 H         1 UNL        0.0756 ****
  3 C           5.833142   -0.779152   -0.315304 C         1 UNL       -0.2255 ****
  4 H           6.161197   -1.741341   -0.720583 H         1 UNL        0.0860 ****
  5 H           6.307632    0.001708   -0.930140 H         1 UNL        0.0860 ****
  6 C           4.323593   -0.660097   -0.399196 C         1 UNL       -0.0596 ****
  7 C           3.689598    0.580526    0.239808 C         1 UNL        0.0821 ****
  8 C           4.296737    0.751068    1.666937 C         1 UNL       -0.0257 ****
  9 H           3.886695   -0.039686    2.309546 H         1 UNL        0.0139 ****
 10 H           3.960483    1.703066    2.091417 H         1 UNL        0.0139 ****
 11 C           5.830571    0.682149    1.730606 C         1 UNL       -0.1120 ****
 12 H           6.276625    1.531742    1.192419 H         1 UNL        0.0356 ****
 13 H           6.166055    0.759505    2.771015 H         1 UNL        0.0356 ****
 14 C           3.609793   -1.620308   -1.006391 C         1 UNL       -0.2397 ****
 15 H           4.119381   -2.494791   -1.407041 H         1 UNL        0.1458 ****
 16 C           2.114460   -1.617793   -1.125860 C         1 UNL        0.0469 ****
 17 H           1.804137   -2.031729   -2.091537 H         1 UNL        0.1216 ****
 18 C           1.511720   -0.215981   -0.911704 C         1 UNL       -0.0349 ****
 19 H           1.815626    0.370606   -1.791262 H         1 UNL        0.0735 ****
 20 C           2.135902    0.399195    0.371129 C         1 UNL        0.0219 ****
 21 H           1.983755   -0.358032    1.154273 H         1 UNL        0.0477 ****
 22 C           1.412196    1.679517    0.849514 C         1 UNL       -0.1110 ****
 23 H           1.686747    2.530154    0.217673 H         1 UNL        0.0486 ****
 24 H           1.755791    1.932860    1.859099 H         1 UNL        0.0486 ****
 25 C          -0.124628    1.568244    0.868776 C         1 UNL       -0.0871 ****
 26 H          -0.433129    0.825811    1.618551 H         1 UNL        0.0110 ****
 27 H          -0.536746    2.529451    1.192146 H         1 UNL        0.0110 ****
 28 C          -0.675585    1.141194   -0.504912 C         1 UNL        0.1736 ****
 29 C          -0.022175   -0.232104   -0.838217 C         1 UNL        0.0361 ****
 30 H          -0.283785   -0.890189    0.002554 H         1 UNL        0.0197 ****
 31 C          -0.814501   -0.734781   -2.055914 C         1 UNL       -0.0975 ****
 32 H          -0.768933   -1.820773   -2.155140 H         1 UNL        0.0322 ****
 33 H          -0.413310   -0.305826   -2.983422 H         1 UNL        0.0322 ****
 34 C          -2.258284   -0.226453   -1.789251 C         1 UNL       -0.0982 ****
 35 H          -2.652671    0.304457   -2.663920 H         1 UNL        0.0303 ****
 36 H          -2.944806   -1.057447   -1.598721 H         1 UNL        0.0303 ****
 37 C          -2.188243    0.733464   -0.555978 C         1 UNL        0.0447 ****
 38 H          -2.364307    0.136054    0.350449 H         1 UNL        0.0016 ****
 39 C          -0.376784    2.220041   -1.571814 C         1 UNL       -0.1948 ****
 40 H           0.694505    2.356914   -1.739812 H         1 UNL        0.0350 ****
 41 H          -0.824959    1.974867   -2.539186 H         1 UNL        0.0350 ****
 42 H          -0.780526    3.190460   -1.262895 H         1 UNL        0.0350 ****
 43 C          -3.275882    1.835797   -0.601852 C         1 UNL        0.0934 ****
 44 H          -3.105600    2.425794   -1.514343 H         1 UNL       -0.0195 ****
 45 C          -3.225278    2.812423    0.588194 C         1 UNL       -0.1447 ****
 46 H          -3.215203    2.286522    1.549417 H         1 UNL        0.0297 ****
 47 H          -4.101728    3.471452    0.579797 H         1 UNL        0.0297 ****
 48 H          -2.339479    3.451728    0.554683 H         1 UNL        0.0297 ****
 49 C           4.051473    1.815030   -0.631015 C         1 UNL       -0.1269 ****
 50 H           3.789670    2.748622   -0.124506 H         1 UNL        0.0335 ****
 51 H           5.121621    1.857373   -0.847681 H         1 UNL        0.0335 ****
 52 H           3.529498    1.789601   -1.592444 H         1 UNL        0.0335 ****
 53 O           1.701068   -2.577605   -0.107186 O         1 UNL       -0.2308 ****
 54 O           0.469025   -3.246596   -0.534389 O         1 UNL       -0.4246 ****
 55 H           0.774958   -4.167816   -0.526538 H         1 UNL        0.4130 ****
 56 O           7.775892   -0.725482    1.186896 O         1 UNL       -0.7180 ****
 57 H           8.163106    0.017184    0.702464 H         1 UNL        0.4170 ****
 58 C          -4.703307    1.244217   -0.752948 C         1 UNL       -0.0294 ****
 59 H          -5.399300    2.086121   -0.878521 H         1 UNL        0.0002 ****
 60 H          -4.761972    0.669020   -1.685425 H         1 UNL        0.0002 ****
 61 C          -5.209199    0.362177    0.400402 C         1 UNL        0.0067 ****
 62 H          -4.539220   -0.496120    0.529097 H         1 UNL        0.0041 ****
 63 H          -5.176687    0.923735    1.344016 H         1 UNL        0.0041 ****
 64 C          -6.644849   -0.133617    0.168646 C         1 UNL       -0.0783 ****
 65 H          -6.676490   -0.743750   -0.747267 H         1 UNL        0.0079 ****
 66 H          -7.287606    0.737087   -0.025905 H         1 UNL        0.0079 ****
 67 C          -7.262063   -0.943746    1.326865 C         1 UNL        0.2677 ****
 68 H          -7.186609   -0.330037    2.238025 H         1 UNL       -0.0407 ****
 69 C          -8.753070   -1.209267    1.064489 C         1 UNL       -0.2183 ****
 70 H          -8.888127   -1.818389    0.161396 H         1 UNL        0.0433 ****
 71 H          -9.214714   -1.748275    1.899738 H         1 UNL        0.0433 ****
 72 H          -9.306852   -0.274336    0.920861 H         1 UNL        0.0433 ****
 73 C          -6.519142   -2.264543    1.585999 C         1 UNL       -0.2167 ****
 74 H          -6.541703   -2.904043    0.693834 H         1 UNL        0.0426 ****
 75 H          -6.987119   -2.822462    2.405161 H         1 UNL        0.0426 ****
 76 H          -5.470498   -2.103232    1.854691 H         1 UNL        0.0426 ****
@<TRIPOS>BOND
    1     1     2 1
    2     1     3 1
    3     1    11 1
    4     1    56 1
    5     3     4 1
    6     3     5 1
    7     3     6 1
    8     6     7 1
    9     6    14 1
   10     7     8 1
   11     7    20 1
   12     7    49 1
   13     8     9 1
   14     8    10 1
   15     8    11 1
   16    11    12 1
   17    11    13 1
   18    14    15 1
   19    14    16 1
   20    16    17 1
   21    16    18 1
   22    16    53 1
   23    18    19 1
   24    18    20 1
   25    18    29 1
   26    20    21 1
   27    20    22 1
   28    22    23 1
   29    22    24 1
   30    22    25 1
   31    25    26 1
   32    25    27 1
   33    25    28 1
   34    28    29 1
   35    28    37 1
   36    28    39 1
   37    29    30 1
   38    29    31 1
   39    31    32 1
   40    31    33 1
   41    31    34 1
   42    34    35 1
   43    34    36 1
   44    34    37 1
   45    37    38 1
   46    37    43 1
   47    39    40 1
   48    39    41 1
   49    39    42 1
   50    43    44 1
   51    43    45 1
   52    43    58 1
   53    45    46 1
   54    45    47 1
   55    45    48 1
   56    49    50 1
   57    49    51 1
   58    49    52 1
   59    53    54 1
   60    54    55 1
   61    56    57 1
   62    58    59 1
   63    58    60 1
   64    58    61 1
   65    61    62 1
   66    61    63 1
   67    61    64 1
   68    64    65 1
   69    64    66 1
   70    64    67 1
   71    67    68 1
   72    67    69 1
   73    67    73 1
   74    69    70 1
   75    69    71 1
   76    69    72 1
   77    73    74 1
   78    73    75 1
   79    73    76 1
@<TRIPOS>SUBSTRUCTURE
      1  UNL              1 ****               0 ****  ****  


